# generated using pymatgen
data_UC2
_symmetry_space_group_name_H-M   'P 1'
_cell_length_a   3.54411805
_cell_length_b   3.54411628
_cell_length_c   3.91581294
_cell_angle_alpha   116.90671710
_cell_angle_beta   116.90668227
_cell_angle_gamma   89.99998509
_symmetry_Int_Tables_number   1
_chemical_formula_structural   UC2
_chemical_formula_sum   'U1 C2'
_cell_volume   37.79353551
_cell_formula_units_Z   1
loop_
 _symmetry_equiv_pos_site_id
 _symmetry_equiv_pos_as_xyz
  1  'x, y, z'
loop_
 _atom_site_type_symbol
 _atom_site_label
 _atom_site_symmetry_multiplicity
 _atom_site_fract_x
 _atom_site_fract_y
 _atom_site_fract_z
 _atom_site_occupancy
  U  U0  1  -0.00000000  0.00000000  0.00000000  1
  C  C1  1  0.61290455  0.61290455  0.22580810  1
  C  C2  1  0.38709545  0.38709545  0.77419190  1
