# generated using pymatgen
data_SiO2
_symmetry_space_group_name_H-M   'P 1'
_cell_length_a   8.07131941
_cell_length_b   8.98643679
_cell_length_c   8.98643679
_cell_angle_alpha   90.00000000
_cell_angle_beta   90.00000000
_cell_angle_gamma   90.00000000
_symmetry_Int_Tables_number   1
_chemical_formula_structural   SiO2
_chemical_formula_sum   'Si16 O32'
_cell_volume   651.80784301
_cell_formula_units_Z   16
loop_
 _symmetry_equiv_pos_site_id
 _symmetry_equiv_pos_as_xyz
  1  'x, y, z'
loop_
 _atom_site_type_symbol
 _atom_site_label
 _atom_site_symmetry_multiplicity
 _atom_site_fract_x
 _atom_site_fract_y
 _atom_site_fract_z
 _atom_site_occupancy
  Si  Si0  1  0.68724134  0.03246963  0.80542951  1
  Si  Si1  1  0.18724134  0.30542951  0.53246963  1
  Si  Si2  1  0.31275866  0.46753037  0.80542951  1
  Si  Si3  1  0.81275866  0.30542951  0.96753037  1
  Si  Si4  1  0.68724134  0.53246963  0.19457049  1
  Si  Si5  1  0.81275866  0.19457049  0.53246963  1
  Si  Si6  1  0.18724134  0.80542951  0.46753037  1
  Si  Si7  1  0.31275866  0.53246963  0.30542951  1
  Si  Si8  1  0.68724134  0.46753037  0.69457049  1
  Si  Si9  1  0.81275866  0.69457049  0.46753037  1
  Si  Si10  1  0.68724134  0.96753037  0.30542951  1
  Si  Si11  1  0.81275866  0.80542951  0.03246963  1
  Si  Si12  1  0.18724134  0.19457049  0.96753037  1
  Si  Si13  1  0.31275866  0.03246963  0.69457049  1
  Si  Si14  1  0.31275866  0.96753037  0.19457049  1
  Si  Si15  1  0.18724134  0.69457049  0.03246963  1
  O  O16  1  0.75000000  0.61973729  0.61973729  1
  O  O17  1  0.19353780  0.57350360  0.16643531  1
  O  O18  1  0.69353780  0.33356469  0.57350360  1
  O  O19  1  0.75000000  0.38026271  0.11973729  1
  O  O20  1  0.00000000  0.25000000  0.51170607  1
  O  O21  1  0.69353780  0.16643531  0.92649640  1
  O  O22  1  0.00000000  0.25000000  0.98829393  1
  O  O23  1  0.80646220  0.92649640  0.16643531  1
  O  O24  1  0.25000000  0.88026271  0.61973729  1
  O  O25  1  0.19353780  0.92649640  0.33356469  1
  O  O26  1  0.19353780  0.07350360  0.83356469  1
  O  O27  1  0.19353780  0.42649640  0.66643531  1
  O  O28  1  0.25000000  0.11973729  0.11973729  1
  O  O29  1  0.80646220  0.42649640  0.83356469  1
  O  O30  1  0.30646220  0.33356469  0.92649640  1
  O  O31  1  0.80646220  0.07350360  0.66643531  1
  O  O32  1  0.50000000  0.48829393  0.75000000  1
  O  O33  1  0.75000000  0.88026271  0.88026271  1
  O  O34  1  0.30646220  0.16643531  0.57350360  1
  O  O35  1  0.80646220  0.57350360  0.33356469  1
  O  O36  1  0.69353780  0.66643531  0.07350360  1
  O  O37  1  0.50000000  0.98829393  0.25000000  1
  O  O38  1  0.69353780  0.83356469  0.42649640  1
  O  O39  1  0.50000000  0.51170607  0.25000000  1
  O  O40  1  0.50000000  0.01170607  0.75000000  1
  O  O41  1  0.30646220  0.66643531  0.42649640  1
  O  O42  1  0.00000000  0.75000000  0.48829393  1
  O  O43  1  0.30646220  0.83356469  0.07350360  1
  O  O44  1  0.00000000  0.75000000  0.01170607  1
  O  O45  1  0.25000000  0.38026271  0.38026271  1
  O  O46  1  0.25000000  0.61973729  0.88026271  1
  O  O47  1  0.75000000  0.11973729  0.38026271  1
