# generated using pymatgen
data_Ce2Zn17
_symmetry_space_group_name_H-M   'P 1'
_cell_length_a   6.76528199
_cell_length_b   6.76528577
_cell_length_c   6.76528426
_cell_angle_alpha   82.84205970
_cell_angle_beta   82.84203961
_cell_angle_gamma   82.84199300
_symmetry_Int_Tables_number   1
_chemical_formula_structural   Ce2Zn17
_chemical_formula_sum   'Ce2 Zn17'
_cell_volume   302.95618738
_cell_formula_units_Z   1
loop_
 _symmetry_equiv_pos_site_id
 _symmetry_equiv_pos_as_xyz
  1  'x, y, z'
loop_
 _atom_site_type_symbol
 _atom_site_label
 _atom_site_symmetry_multiplicity
 _atom_site_fract_x
 _atom_site_fract_y
 _atom_site_fract_z
 _atom_site_occupancy
  Ce  Ce0  1  0.33754263  0.33754263  0.33754263  1
  Ce  Ce1  1  0.66245737  0.66245737  0.66245737  1
  Zn  Zn2  1  0.09908931  0.09908931  0.09908931  1
  Zn  Zn3  1  0.90091069  0.90091069  0.90091069  1
  Zn  Zn4  1  0.00000000  -0.00000000  0.50000000  1
  Zn  Zn5  1  0.50000000  -0.00000000  -0.00000000  1
  Zn  Zn6  1  0.00000000  0.50000000  -0.00000000  1
  Zn  Zn7  1  0.70862653  0.29137347  0.00000000  1
  Zn  Zn8  1  0.00000000  0.70862653  0.29137347  1
  Zn  Zn9  1  0.29137347  -0.00000000  0.70862653  1
  Zn  Zn10  1  0.29137347  0.70862653  -0.00000000  1
  Zn  Zn11  1  -0.00000000  0.29137347  0.70862653  1
  Zn  Zn12  1  0.70862653  0.00000000  0.29137347  1
  Zn  Zn13  1  0.65053009  0.15925356  0.65053009  1
  Zn  Zn14  1  0.65053009  0.65053009  0.15925356  1
  Zn  Zn15  1  0.15925356  0.65053009  0.65053009  1
  Zn  Zn16  1  0.84074644  0.34946991  0.34946991  1
  Zn  Zn17  1  0.34946991  0.84074644  0.34946991  1
  Zn  Zn18  1  0.34946991  0.34946991  0.84074644  1
