# generated using pymatgen
data_ErTh
_symmetry_space_group_name_H-M   'P 1'
_cell_length_a   6.04191205
_cell_length_b   6.04191205
_cell_length_c   6.04191112
_cell_angle_alpha   34.25194220
_cell_angle_beta   34.25194220
_cell_angle_gamma   34.25194978
_symmetry_Int_Tables_number   1
_chemical_formula_structural   ErTh
_chemical_formula_sum   'Er1 Th1'
_cell_volume   62.30543412
_cell_formula_units_Z   1
loop_
 _symmetry_equiv_pos_site_id
 _symmetry_equiv_pos_as_xyz
  1  'x, y, z'
loop_
 _atom_site_type_symbol
 _atom_site_label
 _atom_site_symmetry_multiplicity
 _atom_site_fract_x
 _atom_site_fract_y
 _atom_site_fract_z
 _atom_site_occupancy
  Er  Er0  1  -0.00000000  0.00000000  -0.00000000  1
  Th  Th1  1  0.50000000  0.50000000  0.50000000  1
