# generated using pymatgen
data_CoO2
_symmetry_space_group_name_H-M   'P 1'
_cell_length_a   2.74409937
_cell_length_b   4.77852463
_cell_length_c   4.92462561
_cell_angle_alpha   99.69931611
_cell_angle_beta   89.99999241
_cell_angle_gamma   73.31389681
_symmetry_Int_Tables_number   1
_chemical_formula_structural   CoO2
_chemical_formula_sum   'Co2 O4'
_cell_volume   60.89195774
_cell_formula_units_Z   2
loop_
 _symmetry_equiv_pos_site_id
 _symmetry_equiv_pos_as_xyz
  1  'x, y, z'
loop_
 _atom_site_type_symbol
 _atom_site_label
 _atom_site_symmetry_multiplicity
 _atom_site_fract_x
 _atom_site_fract_y
 _atom_site_fract_z
 _atom_site_occupancy
  Co  Co0  1  -0.00000000  0.00000000  0.00000000  1
  Co  Co1  1  0.50000000  0.00000000  0.50000000  1
  O  O2  1  0.89594341  0.20811518  0.36558868  1
  O  O3  1  0.39594386  0.20811327  0.86555690  1
  O  O4  1  0.10405659  0.79188482  0.63441132  1
  O  O5  1  0.60405614  0.79188673  0.13444310  1
