# generated using pymatgen
data_C
_symmetry_space_group_name_H-M   'P 1'
_cell_length_a   2.45622764
_cell_length_b   2.45622737
_cell_length_c   24.13396017
_cell_angle_alpha   90.02726665
_cell_angle_beta   89.97273044
_cell_angle_gamma   119.99983847
_symmetry_Int_Tables_number   1
_chemical_formula_structural   C
_chemical_formula_sum   C4
_cell_volume   126.09476181
_cell_formula_units_Z   4
loop_
 _symmetry_equiv_pos_site_id
 _symmetry_equiv_pos_as_xyz
  1  'x, y, z'
loop_
 _atom_site_type_symbol
 _atom_site_label
 _atom_site_symmetry_multiplicity
 _atom_site_fract_x
 _atom_site_fract_y
 _atom_site_fract_z
 _atom_site_occupancy
  C  C0  1  0.00058669  0.99941324  0.51500378  1
  C  C1  1  0.99941489  0.00058518  0.65594132  1
  C  C2  1  0.66608640  0.33391353  0.65594799  1
  C  C3  1  0.33391202  0.66608805  0.51499690  1
