# generated using pymatgen
data_LaTe2
_symmetry_space_group_name_H-M   'P 1'
_cell_length_a   9.14142881
_cell_length_b   9.13761061
_cell_length_c   9.28492748
_cell_angle_alpha   90.00000000
_cell_angle_beta   89.99102736
_cell_angle_gamma   90.00000000
_symmetry_Int_Tables_number   1
_chemical_formula_structural   LaTe2
_chemical_formula_sum   'La8 Te16'
_cell_volume   775.57756805
_cell_formula_units_Z   8
loop_
 _symmetry_equiv_pos_site_id
 _symmetry_equiv_pos_as_xyz
  1  'x, y, z'
loop_
 _atom_site_type_symbol
 _atom_site_label
 _atom_site_symmetry_multiplicity
 _atom_site_fract_x
 _atom_site_fract_y
 _atom_site_fract_z
 _atom_site_occupancy
  La  La0  1  0.00304354  0.50073178  0.27324004  1
  La  La1  1  0.75199018  0.24976551  0.72682300  1
  La  La2  1  0.75206161  0.74966493  0.72672026  1
  La  La3  1  0.25198918  0.75023449  0.72682300  1
  La  La4  1  0.00068270  0.00056121  0.27355122  1
  La  La5  1  0.50068270  0.99943879  0.27355122  1
  La  La6  1  0.25206161  0.25033507  0.72672026  1
  La  La7  1  0.50304354  0.49926822  0.27324004  1
  Te  Te8  1  0.25481561  0.50043893  0.00007127  1
  Te  Te9  1  0.00224521  0.25094244  0.00008659  1
  Te  Te10  1  0.50219319  0.49989401  0.63297660  1
  Te  Te11  1  0.25185794  0.25011331  0.36709722  1
  Te  Te12  1  0.50178553  0.99977456  0.63302169  1
  Te  Te13  1  0.50224521  0.74905756  0.00008659  1
  Te  Te14  1  0.25184524  0.75003441  0.36715852  1
  Te  Te15  1  0.75184524  0.24996559  0.36715852  1
  Te  Te16  1  0.00254047  0.75123293  0.00009258  1
  Te  Te17  1  0.50254047  0.24876707  0.00009258  1
  Te  Te18  1  0.75185794  0.74988669  0.36709722  1
  Te  Te19  1  0.75481561  0.49956107  0.00007127  1
  Te  Te20  1  0.74923878  0.99876157  0.00005902  1
  Te  Te21  1  0.24923878  0.00123843  0.00005902  1
  Te  Te22  1  0.00178553  0.00022544  0.63302169  1
  Te  Te23  1  0.00219319  0.50010599  0.63297660  1
