# generated using pymatgen
data_SrAu
_symmetry_space_group_name_H-M   'P 1'
_cell_length_a   4.68916238
_cell_length_b   6.20433384
_cell_length_c   40.73616133
_cell_angle_alpha   85.76076887
_cell_angle_beta   90.00000000
_cell_angle_gamma   90.00000000
_symmetry_Int_Tables_number   1
_chemical_formula_structural   SrAu
_chemical_formula_sum   'Sr20 Au20'
_cell_volume   1181.89995447
_cell_formula_units_Z   20
loop_
 _symmetry_equiv_pos_site_id
 _symmetry_equiv_pos_as_xyz
  1  'x, y, z'
loop_
 _atom_site_type_symbol
 _atom_site_label
 _atom_site_symmetry_multiplicity
 _atom_site_fract_x
 _atom_site_fract_y
 _atom_site_fract_z
 _atom_site_occupancy
  Sr  Sr0  1  0.75000000  0.94276931  0.08639859  1
  Sr  Sr1  1  0.25000000  0.05723069  0.91360141  1
  Sr  Sr2  1  0.75000000  0.65980993  0.18610185  1
  Sr  Sr3  1  0.25000000  0.34019007  0.81389815  1
  Sr  Sr4  1  0.75000000  0.84260323  0.28629182  1
  Sr  Sr5  1  0.25000000  0.15739677  0.71370818  1
  Sr  Sr6  1  0.75000000  0.03812565  0.38600393  1
  Sr  Sr7  1  0.25000000  0.96187435  0.61399607  1
  Sr  Sr8  1  0.75000000  0.76242774  0.48636177  1
  Sr  Sr9  1  0.25000000  0.23757226  0.51363823  1
  Sr  Sr10  1  0.75000000  0.47497540  0.58622527  1
  Sr  Sr11  1  0.25000000  0.52502460  0.41377473  1
  Sr  Sr12  1  0.75000000  0.65680989  0.68637441  1
  Sr  Sr13  1  0.25000000  0.34319011  0.31362559  1
  Sr  Sr14  1  0.75000000  0.85326573  0.78625372  1
  Sr  Sr15  1  0.25000000  0.14673427  0.21374628  1
  Sr  Sr16  1  0.75000000  0.57173218  0.88594285  1
  Sr  Sr17  1  0.25000000  0.42826782  0.11405715  1
  Sr  Sr18  1  0.75000000  0.75029818  0.98634351  1
  Sr  Sr19  1  0.25000000  0.24970182  0.01365649  1
  Au  Au20  1  0.75000000  0.45597867  0.05767678  1
  Au  Au21  1  0.25000000  0.54402133  0.94232322  1
  Au  Au22  1  0.75000000  0.17411343  0.15801890  1
  Au  Au23  1  0.25000000  0.82588657  0.84198110  1
  Au  Au24  1  0.75000000  0.35510552  0.25799758  1
  Au  Au25  1  0.25000000  0.64489448  0.74200242  1
  Au  Au26  1  0.75000000  0.54964798  0.35772977  1
  Au  Au27  1  0.25000000  0.45035202  0.64227023  1
  Au  Au28  1  0.75000000  0.27443503  0.45774734  1
  Au  Au29  1  0.25000000  0.72556497  0.54225266  1
  Au  Au30  1  0.75000000  0.98963492  0.55797590  1
  Au  Au31  1  0.25000000  0.01036508  0.44202410  1
  Au  Au32  1  0.75000000  0.17063183  0.65784347  1
  Au  Au33  1  0.25000000  0.82936817  0.34215653  1
  Au  Au34  1  0.75000000  0.36441484  0.75773020  1
  Au  Au35  1  0.25000000  0.63558516  0.24226980  1
  Au  Au36  1  0.75000000  0.08668804  0.85787707  1
  Au  Au37  1  0.25000000  0.91331196  0.14212293  1
  Au  Au38  1  0.75000000  0.26410067  0.95789101  1
  Au  Au39  1  0.25000000  0.73589933  0.04210899  1
