# generated using pymatgen
data_CO2
_symmetry_space_group_name_H-M   'P 1'
_cell_length_a   4.76141942
_cell_length_b   4.76141942
_cell_length_c   7.67256448
_cell_angle_alpha   90.00000000
_cell_angle_beta   90.00000000
_cell_angle_gamma   90.00000000
_symmetry_Int_Tables_number   1
_chemical_formula_structural   CO2
_chemical_formula_sum   'C4 O8'
_cell_volume   173.94559079
_cell_formula_units_Z   4
loop_
 _symmetry_equiv_pos_site_id
 _symmetry_equiv_pos_as_xyz
  1  'x, y, z'
loop_
 _atom_site_type_symbol
 _atom_site_label
 _atom_site_symmetry_multiplicity
 _atom_site_fract_x
 _atom_site_fract_y
 _atom_site_fract_z
 _atom_site_occupancy
  C  C0  1  0.00141981  0.99858019  0.75000000  1
  C  C1  1  0.99858019  0.00141981  0.25000000  1
  C  C2  1  0.49858019  0.49858019  0.50000000  1
  C  C3  1  0.50141981  0.50141981  0.00000000  1
  O  O4  1  0.67177689  0.32536255  0.50309626  1
  O  O5  1  0.32822311  0.67463745  0.00309626  1
  O  O6  1  0.82536255  0.82822311  0.25309626  1
  O  O7  1  0.17463745  0.17177689  0.75309626  1
  O  O8  1  0.67463745  0.32822311  0.99690374  1
  O  O9  1  0.32536255  0.67177689  0.49690374  1
  O  O10  1  0.82822311  0.82536255  0.74690374  1
  O  O11  1  0.17177689  0.17463745  0.24690374  1
