# generated using pymatgen
data_NpF4
_symmetry_space_group_name_H-M   'P 1'
_cell_length_a   8.32593993
_cell_length_b   8.32238278
_cell_length_c   8.30601470
_cell_angle_alpha   62.92655271
_cell_angle_beta   62.87345086
_cell_angle_gamma   81.10891313
_symmetry_Int_Tables_number   1
_chemical_formula_structural   NpF4
_chemical_formula_sum   'Np6 F24'
_cell_volume   455.08142944
_cell_formula_units_Z   6
loop_
 _symmetry_equiv_pos_site_id
 _symmetry_equiv_pos_as_xyz
  1  'x, y, z'
loop_
 _atom_site_type_symbol
 _atom_site_label
 _atom_site_symmetry_multiplicity
 _atom_site_fract_x
 _atom_site_fract_y
 _atom_site_fract_z
 _atom_site_occupancy
  Np  Np0  1  0.21497728  0.78427489  0.75097099  1
  Np  Np1  1  0.78502272  0.21572511  0.24902901  1
  Np  Np2  1  0.63361170  0.77868330  0.16743241  1
  Np  Np3  1  0.22157203  0.36543727  0.33291894  1
  Np  Np4  1  0.36638830  0.22131670  0.83256759  1
  Np  Np5  1  0.77842797  0.63456273  0.66708106  1
  F  F6  1  0.50000000  -0.00000000  0.00000000  1
  F  F7  1  -0.00000000  0.50000000  0.50000000  1
  F  F8  1  0.60415546  0.39665604  0.75044303  1
  F  F9  1  0.39584454  0.60334396  0.24955697  1
  F  F10  1  0.18636130  0.59739253  0.07166780  1
  F  F11  1  0.40008755  0.81105541  0.42818473  1
  F  F12  1  0.81363870  0.40260747  0.92833220  1
  F  F13  1  0.59991245  0.18894459  0.57181527  1
  F  F14  1  0.93607898  0.82834076  0.95277540  1
  F  F15  1  0.17597055  0.06304624  0.54372710  1
  F  F16  1  0.06392102  0.17165924  0.04722460  1
  F  F17  1  0.82402945  0.93695376  0.45627290  1
  F  F18  1  0.31833663  0.25789671  0.10659829  1
  F  F19  1  0.74264954  0.68404229  0.39224937  1
  F  F20  1  0.68166337  0.74210329  0.89340071  1
  F  F21  1  0.25735046  0.31595771  0.60775063  1
  F  F22  1  0.74089986  0.50044542  0.21338016  1
  F  F23  1  0.50049298  0.25807275  0.28756202  1
  F  F24  1  0.25910014  0.49955458  0.78661984  1
  F  F25  1  0.49950702  0.74192725  0.71243798  1
  F  F26  1  0.97032380  0.27619096  0.34965597  1
  F  F27  1  0.72297391  0.03151621  0.14893727  1
  F  F28  1  0.02967620  0.72380904  0.65034403  1
  F  F29  1  0.27702609  0.96848379  0.85106273  1
