# generated using pymatgen
data_PrBi3
_symmetry_space_group_name_H-M   'P 1'
_cell_length_a   6.57779118
_cell_length_b   6.57779118
_cell_length_c   6.57779118
_cell_angle_alpha   138.13728040
_cell_angle_beta   138.13728040
_cell_angle_gamma   60.69281226
_symmetry_Int_Tables_number   1
_chemical_formula_structural   PrBi3
_chemical_formula_sum   'Pr1 Bi3'
_cell_volume   125.38540748
_cell_formula_units_Z   1
loop_
 _symmetry_equiv_pos_site_id
 _symmetry_equiv_pos_as_xyz
  1  'x, y, z'
loop_
 _atom_site_type_symbol
 _atom_site_label
 _atom_site_symmetry_multiplicity
 _atom_site_fract_x
 _atom_site_fract_y
 _atom_site_fract_z
 _atom_site_occupancy
  Pr  Pr0  1  -0.00000000  0.00000000  0.00000000  1
  Bi  Bi1  1  0.75000000  0.25000000  0.50000000  1
  Bi  Bi2  1  0.25000000  0.75000000  0.50000000  1
  Bi  Bi3  1  0.50000000  0.50000000  0.00000000  1
