# generated using pymatgen
data_Ge5Ir4
_symmetry_space_group_name_H-M   'P 1'
_cell_length_a   5.64895521
_cell_length_b   5.64895521
_cell_length_c   18.37100551
_cell_angle_alpha   90.00000000
_cell_angle_beta   90.00000000
_cell_angle_gamma   90.00000000
_symmetry_Int_Tables_number   1
_chemical_formula_structural   Ge5Ir4
_chemical_formula_sum   'Ge20 Ir16'
_cell_volume   586.23155302
_cell_formula_units_Z   4
loop_
 _symmetry_equiv_pos_site_id
 _symmetry_equiv_pos_as_xyz
  1  'x, y, z'
loop_
 _atom_site_type_symbol
 _atom_site_label
 _atom_site_symmetry_multiplicity
 _atom_site_fract_x
 _atom_site_fract_y
 _atom_site_fract_z
 _atom_site_occupancy
  Ge  Ge0  1  0.32186427  0.32186427  0.25000000  1
  Ge  Ge1  1  0.32186427  0.67813573  0.75000000  1
  Ge  Ge2  1  0.67813573  0.32186427  0.75000000  1
  Ge  Ge3  1  0.67813573  0.67813573  0.25000000  1
  Ge  Ge4  1  0.34093113  0.19632869  0.05545609  1
  Ge  Ge5  1  0.19632869  0.65906887  0.94454391  1
  Ge  Ge6  1  0.80367131  0.34093113  0.94454391  1
  Ge  Ge7  1  0.65906887  0.80367131  0.05545609  1
  Ge  Ge8  1  0.19632869  0.34093113  0.44454391  1
  Ge  Ge9  1  0.80367131  0.65906887  0.44454391  1
  Ge  Ge10  1  0.65906887  0.19632869  0.55545609  1
  Ge  Ge11  1  0.34093113  0.80367131  0.55545609  1
  Ge  Ge12  1  0.85336796  0.22491077  0.14474712  1
  Ge  Ge13  1  0.22491077  0.14663204  0.85525288  1
  Ge  Ge14  1  0.77508923  0.85336796  0.85525288  1
  Ge  Ge15  1  0.14663204  0.77508923  0.14474712  1
  Ge  Ge16  1  0.22491077  0.85336796  0.35525288  1
  Ge  Ge17  1  0.77508923  0.14663204  0.35525288  1
  Ge  Ge18  1  0.14663204  0.22491077  0.64474712  1
  Ge  Ge19  1  0.85336796  0.77508923  0.64474712  1
  Ir  Ir20  1  0.00000000  -0.00000000  0.25000000  1
  Ir  Ir21  1  0.00000000  -0.00000000  0.75000000  1
  Ir  Ir22  1  0.00000000  -0.00000000  0.00000000  1
  Ir  Ir23  1  0.00000000  -0.00000000  0.50000000  1
  Ir  Ir24  1  0.50000000  0.50000000  0.13621084  1
  Ir  Ir25  1  0.50000000  0.50000000  0.86378916  1
  Ir  Ir26  1  0.50000000  0.50000000  0.36378916  1
  Ir  Ir27  1  0.50000000  0.50000000  0.63621084  1
  Ir  Ir28  1  0.00000000  0.50000000  0.05564388  1
  Ir  Ir29  1  0.50000000  -0.00000000  0.94435612  1
  Ir  Ir30  1  0.50000000  -0.00000000  0.44435512  1
  Ir  Ir31  1  0.00000000  0.50000000  0.55564388  1
  Ir  Ir32  1  0.00000000  0.50000000  0.32382311  1
  Ir  Ir33  1  0.50000000  -0.00000000  0.67617689  1
  Ir  Ir34  1  0.50000000  -0.00000000  0.17617689  1
  Ir  Ir35  1  0.00000000  0.50000000  0.82382311  1
