# generated using pymatgen
data_Ce
_symmetry_space_group_name_H-M   'P 1'
_cell_length_a   3.30295595
_cell_length_b   3.30295595
_cell_length_c   5.70436745
_cell_angle_alpha   73.16686979
_cell_angle_beta   73.16686979
_cell_angle_gamma   60.02328480
_symmetry_Int_Tables_number   1
_chemical_formula_structural   Ce
_chemical_formula_sum   Ce2
_cell_volume   50.80323466
_cell_formula_units_Z   2
loop_
 _symmetry_equiv_pos_site_id
 _symmetry_equiv_pos_as_xyz
  1  'x, y, z'
loop_
 _atom_site_type_symbol
 _atom_site_label
 _atom_site_symmetry_multiplicity
 _atom_site_fract_x
 _atom_site_fract_y
 _atom_site_fract_z
 _atom_site_occupancy
  Ce  Ce0  1  0.74555052  0.74555052  0.25006768  1
  Ce  Ce1  1  0.25444948  0.25444948  0.74993232  1
