# generated using pymatgen
data_P2O5
_symmetry_space_group_name_H-M   'P 1'
_cell_length_a   7.40797731
_cell_length_b   7.40797818
_cell_length_c   7.40797775
_cell_angle_alpha   87.28824269
_cell_angle_beta   87.28824390
_cell_angle_gamma   87.28824799
_symmetry_Int_Tables_number   1
_chemical_formula_structural   P2O5
_chemical_formula_sum   'P8 O20'
_cell_volume   405.21192807
_cell_formula_units_Z   4
loop_
 _symmetry_equiv_pos_site_id
 _symmetry_equiv_pos_as_xyz
  1  'x, y, z'
loop_
 _atom_site_type_symbol
 _atom_site_label
 _atom_site_symmetry_multiplicity
 _atom_site_fract_x
 _atom_site_fract_y
 _atom_site_fract_z
 _atom_site_occupancy
  P  P0  1  0.81158943  0.12687180  0.94398697  1
  P  P1  1  0.44398697  0.62687180  0.31158943  1
  P  P2  1  0.63164567  0.63164567  0.63164567  1
  P  P3  1  0.62687180  0.31158943  0.44398697  1
  P  P4  1  0.13164567  0.13164567  0.13164567  1
  P  P5  1  0.12687180  0.94398697  0.81158943  1
  P  P6  1  0.94398697  0.81158943  0.12687180  1
  P  P7  1  0.31158943  0.44398697  0.62687180  1
  O  O8  1  0.56237456  0.72704135  0.44794313  1
  O  O9  1  0.56038033  0.44317645  0.28089707  1
  O  O10  1  0.06038033  0.78089707  0.94317645  1
  O  O11  1  0.94794313  0.22704135  0.06237456  1
  O  O12  1  0.73842767  0.73842767  0.73842767  1
  O  O13  1  0.65123611  0.23006533  0.89456513  1
  O  O14  1  0.22704135  0.06237456  0.94794313  1
  O  O15  1  0.23006533  0.89456513  0.65123611  1
  O  O16  1  0.44317645  0.28089707  0.56038033  1
  O  O17  1  0.72704135  0.44794313  0.56237456  1
  O  O18  1  0.89456513  0.65123611  0.23006533  1
  O  O19  1  0.28089707  0.56038033  0.44317645  1
  O  O20  1  0.39456513  0.73006533  0.15123611  1
  O  O21  1  0.23842767  0.23842767  0.23842767  1
  O  O22  1  0.06237456  0.94794313  0.22704135  1
  O  O23  1  0.94317645  0.06038033  0.78089707  1
  O  O24  1  0.15123611  0.39456513  0.73006533  1
  O  O25  1  0.73006533  0.15123611  0.39456513  1
  O  O26  1  0.78089707  0.94317645  0.06038033  1
  O  O27  1  0.44794313  0.56237456  0.72704135  1
