# generated using pymatgen
data_WBr4
_symmetry_space_group_name_H-M   'P 1'
_cell_length_a   7.20600037
_cell_length_b   7.20600037
_cell_length_c   8.74166098
_cell_angle_alpha   55.14282743
_cell_angle_beta   55.14282743
_cell_angle_gamma   57.45125355
_symmetry_Int_Tables_number   1
_chemical_formula_structural   WBr4
_chemical_formula_sum   'W2 Br8'
_cell_volume   290.20033814
_cell_formula_units_Z   2
loop_
 _symmetry_equiv_pos_site_id
 _symmetry_equiv_pos_as_xyz
  1  'x, y, z'
loop_
 _atom_site_type_symbol
 _atom_site_label
 _atom_site_symmetry_multiplicity
 _atom_site_fract_x
 _atom_site_fract_y
 _atom_site_fract_z
 _atom_site_occupancy
  W  W0  1  0.70693918  0.29306082  -0.00000000  1
  W  W1  1  0.29306082  0.70693918  -0.00000000  1
  Br  Br2  1  0.76591211  0.28112189  0.69916282  1
  Br  Br3  1  0.71887811  0.23408789  0.30083718  1
  Br  Br4  1  0.23408789  0.71887811  0.30083718  1
  Br  Br5  1  0.28112189  0.76591211  0.69916282  1
  Br  Br6  1  0.71296049  0.71296049  0.82020108  1
  Br  Br7  1  0.28703951  0.28703951  0.17979892  1
  Br  Br8  1  0.81958076  0.81958076  0.15252257  1
  Br  Br9  1  0.18041924  0.18041924  0.84747743  1
