# generated using pymatgen
data_N2
_symmetry_space_group_name_H-M   'P 1'
_cell_length_a   7.19721469
_cell_length_b   7.19721334
_cell_length_c   7.19721350
_cell_angle_alpha   86.48820180
_cell_angle_beta   86.48820064
_cell_angle_gamma   86.48821828
_symmetry_Int_Tables_number   1
_chemical_formula_structural   N2
_chemical_formula_sum   N16
_cell_volume   370.79685632
_cell_formula_units_Z   8
loop_
 _symmetry_equiv_pos_site_id
 _symmetry_equiv_pos_as_xyz
  1  'x, y, z'
loop_
 _atom_site_type_symbol
 _atom_site_label
 _atom_site_symmetry_multiplicity
 _atom_site_fract_x
 _atom_site_fract_y
 _atom_site_fract_z
 _atom_site_occupancy
  N  N0  1  0.05861181  0.54238325  0.22083057  1
  N  N1  1  0.45761675  0.77916943  0.94138819  1
  N  N2  1  0.22083057  0.05861181  0.54238325  1
  N  N3  1  0.45814088  0.45814088  0.45814088  1
  N  N4  1  0.04238325  0.55861181  0.72083057  1
  N  N5  1  0.27916943  0.95761675  0.44138819  1
  N  N6  1  0.77916943  0.94138819  0.45761675  1
  N  N7  1  0.54185912  0.54185912  0.54185912  1
  N  N8  1  0.95761675  0.44138819  0.27916943  1
  N  N9  1  0.04185912  0.04185912  0.04185912  1
  N  N10  1  0.94138819  0.45761675  0.77916943  1
  N  N11  1  0.95814088  0.95814088  0.95814088  1
  N  N12  1  0.54238325  0.22083057  0.05861181  1
  N  N13  1  0.44138819  0.27916943  0.95761675  1
  N  N14  1  0.72083057  0.04238325  0.55861181  1
  N  N15  1  0.55861181  0.72083057  0.04238325  1
