# generated using pymatgen
data_Nd5Ge4
_symmetry_space_group_name_H-M   'P 1'
_cell_length_a   7.94699638
_cell_length_b   8.03119926
_cell_length_c   15.20428941
_cell_angle_alpha   90.00000000
_cell_angle_beta   90.00000000
_cell_angle_gamma   90.00000000
_symmetry_Int_Tables_number   1
_chemical_formula_structural   Nd5Ge4
_chemical_formula_sum   'Nd20 Ge16'
_cell_volume   970.39722091
_cell_formula_units_Z   4
loop_
 _symmetry_equiv_pos_site_id
 _symmetry_equiv_pos_as_xyz
  1  'x, y, z'
loop_
 _atom_site_type_symbol
 _atom_site_label
 _atom_site_symmetry_multiplicity
 _atom_site_fract_x
 _atom_site_fract_y
 _atom_site_fract_z
 _atom_site_occupancy
  Nd  Nd0  1  0.39156730  0.16161049  0.88717501  1
  Nd  Nd1  1  0.89156730  0.33838951  0.61282499  1
  Nd  Nd2  1  0.10843270  0.66161049  0.11282499  1
  Nd  Nd3  1  0.60843270  0.83838951  0.38717501  1
  Nd  Nd4  1  0.39156730  0.16161049  0.61282499  1
  Nd  Nd5  1  0.89156730  0.33838951  0.88717501  1
  Nd  Nd6  1  0.10843270  0.66161049  0.38717501  1
  Nd  Nd7  1  0.60843270  0.83838951  0.11282499  1
  Nd  Nd8  1  0.03961995  0.82490362  0.60487593  1
  Nd  Nd9  1  0.53961895  0.67509638  0.89512407  1
  Nd  Nd10  1  0.46038105  0.32490362  0.39512507  1
  Nd  Nd11  1  0.96038005  0.17509638  0.10487493  1
  Nd  Nd12  1  0.96038005  0.17509638  0.39512507  1
  Nd  Nd13  1  0.46038105  0.32490362  0.10487493  1
  Nd  Nd14  1  0.53961895  0.67509638  0.60487593  1
  Nd  Nd15  1  0.03961995  0.82490362  0.89512407  1
  Nd  Nd16  1  0.27706741  0.99880906  0.25000000  1
  Nd  Nd17  1  0.77706741  0.50119094  0.25000000  1
  Nd  Nd18  1  0.22293259  0.49880906  0.75000000  1
  Nd  Nd19  1  0.72293259  0.00119094  0.75000000  1
  Ge  Ge20  1  0.76875409  0.52394393  0.45340077  1
  Ge  Ge21  1  0.26875409  0.97605607  0.04659923  1
  Ge  Ge22  1  0.73124591  0.02394393  0.54659923  1
  Ge  Ge23  1  0.23124591  0.47605607  0.95340077  1
  Ge  Ge24  1  0.23124591  0.47605607  0.54659923  1
  Ge  Ge25  1  0.73124591  0.02394393  0.95340077  1
  Ge  Ge26  1  0.26875409  0.97605607  0.45340077  1
  Ge  Ge27  1  0.76875409  0.52394393  0.04659923  1
  Ge  Ge28  1  0.89909247  0.88929034  0.25000000  1
  Ge  Ge29  1  0.39909247  0.61070866  0.25000000  1
  Ge  Ge30  1  0.60090753  0.38929134  0.75000000  1
  Ge  Ge31  1  0.10090753  0.11070966  0.75000000  1
  Ge  Ge32  1  0.16344218  0.37222558  0.25000000  1
  Ge  Ge33  1  0.66344218  0.12777442  0.25000000  1
  Ge  Ge34  1  0.33655782  0.87222558  0.75000000  1
  Ge  Ge35  1  0.83655782  0.62777442  0.75000000  1
