# generated using pymatgen
data_TmCu2
_symmetry_space_group_name_H-M   'P 1'
_cell_length_a   4.24723629
_cell_length_b   5.32325083
_cell_length_c   5.32325083
_cell_angle_alpha   76.74879745
_cell_angle_beta   66.48852875
_cell_angle_gamma   66.48852875
_symmetry_Int_Tables_number   1
_chemical_formula_structural   TmCu2
_chemical_formula_sum   'Tm2 Cu4'
_cell_volume   100.84790646
_cell_formula_units_Z   2
loop_
 _symmetry_equiv_pos_site_id
 _symmetry_equiv_pos_as_xyz
  1  'x, y, z'
loop_
 _atom_site_type_symbol
 _atom_site_label
 _atom_site_symmetry_multiplicity
 _atom_site_fract_x
 _atom_site_fract_y
 _atom_site_fract_z
 _atom_site_occupancy
  Tm  Tm0  1  0.54719680  0.70280320  0.20280320  1
  Tm  Tm1  1  0.45280320  0.29719680  0.79719680  1
  Cu  Cu2  1  0.16426027  0.28251267  0.38896580  1
  Cu  Cu3  1  0.83573973  0.71748733  0.61103420  1
  Cu  Cu4  1  0.83573973  0.11103420  0.21748733  1
  Cu  Cu5  1  0.16426027  0.88896580  0.78251267  1
