# generated using pymatgen
data_K2ZrF6
_symmetry_space_group_name_H-M   'P 1'
_cell_length_a   6.56015907
_cell_length_b   6.58094830
_cell_length_c   6.88266948
_cell_angle_alpha   90.00000000
_cell_angle_beta   90.00000000
_cell_angle_gamma   119.89556101
_symmetry_Int_Tables_number   1
_chemical_formula_structural   K2ZrF6
_chemical_formula_sum   'K4 Zr2 F12'
_cell_volume   257.60037097
_cell_formula_units_Z   2
loop_
 _symmetry_equiv_pos_site_id
 _symmetry_equiv_pos_as_xyz
  1  'x, y, z'
loop_
 _atom_site_type_symbol
 _atom_site_label
 _atom_site_symmetry_multiplicity
 _atom_site_fract_x
 _atom_site_fract_y
 _atom_site_fract_z
 _atom_site_occupancy
  K  K0  1  0.34469906  0.68939912  0.49993193  1
  K  K1  1  0.65530094  0.31060088  0.50006807  1
  K  K2  1  0.65530094  0.31060088  -0.00006807  1
  K  K3  1  0.34469906  0.68939912  0.00006807  1
  Zr  Zr4  1  0.94830250  0.89660501  0.25000000  1
  Zr  Zr5  1  0.05169750  0.10339499  0.75000000  1
  F  F6  1  0.10071390  0.20142880  0.04760061  1
  F  F7  1  0.89928610  0.79857120  0.95239939  1
  F  F8  1  0.89928610  0.79857120  0.54760061  1
  F  F9  1  0.10071390  0.20142880  0.45239939  1
  F  F10  1  0.39074408  0.39924950  0.75000000  1
  F  F11  1  0.99149457  0.60075050  0.25000000  1
  F  F12  1  0.69729497  0.98174171  0.75000000  1
  F  F13  1  0.71555426  0.01825829  0.25000000  1
  F  F14  1  0.30270503  0.01825829  0.25000000  1
  F  F15  1  0.28444574  0.98174171  0.75000000  1
  F  F16  1  0.00850543  0.39924950  0.75000000  1
  F  F17  1  0.60925592  0.60075050  0.25000000  1
