# generated using pymatgen
data_Sc3IrC4
_symmetry_space_group_name_H-M   'P 1'
_cell_length_a   6.72637578
_cell_length_b   6.72637578
_cell_length_c   6.72637578
_cell_angle_alpha   150.21852355
_cell_angle_beta   141.47619770
_cell_angle_gamma   49.43761907
_symmetry_Int_Tables_number   1
_chemical_formula_structural   Sc3IrC4
_chemical_formula_sum   'Sc3 Ir1 C4'
_cell_volume   93.74001145
_cell_formula_units_Z   1
loop_
 _symmetry_equiv_pos_site_id
 _symmetry_equiv_pos_as_xyz
  1  'x, y, z'
loop_
 _atom_site_type_symbol
 _atom_site_label
 _atom_site_symmetry_multiplicity
 _atom_site_fract_x
 _atom_site_fract_y
 _atom_site_fract_z
 _atom_site_occupancy
  Sc  Sc0  1  0.50000000  0.50000000  -0.00000000  1
  Sc  Sc1  1  0.80965294  0.30965294  0.50000000  1
  Sc  Sc2  1  0.19034706  0.69034706  0.50000000  1
  Ir  Ir3  1  -0.00000000  -0.00000000  -0.00000000  1
  C  C4  1  0.20870668  0.87210115  0.33660553  1
  C  C5  1  0.79129332  0.12789885  0.66339447  1
  C  C6  1  0.46450538  0.12789885  0.33660553  1
  C  C7  1  0.53549462  0.87210115  0.66339447  1
