# generated using pymatgen
data_SmGaPt
_symmetry_space_group_name_H-M   'P 1'
_cell_length_a   4.46307606
_cell_length_b   7.08664864
_cell_length_c   7.66744282
_cell_angle_alpha   90.00000000
_cell_angle_beta   90.00000000
_cell_angle_gamma   90.00000000
_symmetry_Int_Tables_number   1
_chemical_formula_structural   SmGaPt
_chemical_formula_sum   'Sm4 Ga4 Pt4'
_cell_volume   242.50781287
_cell_formula_units_Z   4
loop_
 _symmetry_equiv_pos_site_id
 _symmetry_equiv_pos_as_xyz
  1  'x, y, z'
loop_
 _atom_site_type_symbol
 _atom_site_label
 _atom_site_symmetry_multiplicity
 _atom_site_fract_x
 _atom_site_fract_y
 _atom_site_fract_z
 _atom_site_occupancy
  Sm  Sm0  1  0.25000000  0.98334077  0.30180780  1
  Sm  Sm1  1  0.25000000  0.48334077  0.19819220  1
  Sm  Sm2  1  0.75000000  0.01665923  0.69819220  1
  Sm  Sm3  1  0.75000000  0.51665923  0.80180780  1
  Ga  Ga4  1  0.25000000  0.32931005  0.57680949  1
  Ga  Ga5  1  0.25000000  0.82931005  0.92319051  1
  Ga  Ga6  1  0.75000000  0.67068995  0.42319051  1
  Ga  Ga7  1  0.75000000  0.17068995  0.07680949  1
  Pt  Pt8  1  0.25000000  0.21733196  0.90400935  1
  Pt  Pt9  1  0.25000000  0.71733196  0.59599065  1
  Pt  Pt10  1  0.75000000  0.78266804  0.09599065  1
  Pt  Pt11  1  0.75000000  0.28266804  0.40400935  1
