# generated using pymatgen
data_TmGaPd
_symmetry_space_group_name_H-M   'P 1'
_cell_length_a   4.40983003
_cell_length_b   6.82292832
_cell_length_c   7.53177647
_cell_angle_alpha   90.00000000
_cell_angle_beta   90.00000000
_cell_angle_gamma   90.00000000
_symmetry_Int_Tables_number   1
_chemical_formula_structural   TmGaPd
_chemical_formula_sum   'Tm4 Ga4 Pd4'
_cell_volume   226.61574546
_cell_formula_units_Z   4
loop_
 _symmetry_equiv_pos_site_id
 _symmetry_equiv_pos_as_xyz
  1  'x, y, z'
loop_
 _atom_site_type_symbol
 _atom_site_label
 _atom_site_symmetry_multiplicity
 _atom_site_fract_x
 _atom_site_fract_y
 _atom_site_fract_z
 _atom_site_occupancy
  Tm  Tm0  1  0.75000000  0.51547488  0.20041769  1
  Tm  Tm1  1  0.75000000  0.01547488  0.29958231  1
  Tm  Tm2  1  0.25000000  0.48452512  0.79958231  1
  Tm  Tm3  1  0.25000000  0.98452512  0.70041769  1
  Ga  Ga4  1  0.75000000  0.17859576  0.92315439  1
  Ga  Ga5  1  0.75000000  0.67859576  0.57684561  1
  Ga  Ga6  1  0.25000000  0.82140424  0.07684561  1
  Ga  Ga7  1  0.25000000  0.32140424  0.42315439  1
  Pd  Pd8  1  0.75000000  0.28055869  0.59500743  1
  Pd  Pd9  1  0.75000000  0.78055869  0.90499257  1
  Pd  Pd10  1  0.25000000  0.71944131  0.40499257  1
  Pd  Pd11  1  0.25000000  0.21944131  0.09500743  1
