# generated using pymatgen
data_ZrSiNi
_symmetry_space_group_name_H-M   'P 1'
_cell_length_a   3.79803846
_cell_length_b   6.46622311
_cell_length_c   7.25348711
_cell_angle_alpha   90.00000000
_cell_angle_beta   90.00000000
_cell_angle_gamma   90.00000000
_symmetry_Int_Tables_number   1
_chemical_formula_structural   ZrSiNi
_chemical_formula_sum   'Zr4 Si4 Ni4'
_cell_volume   178.13812926
_cell_formula_units_Z   4
loop_
 _symmetry_equiv_pos_site_id
 _symmetry_equiv_pos_as_xyz
  1  'x, y, z'
loop_
 _atom_site_type_symbol
 _atom_site_label
 _atom_site_symmetry_multiplicity
 _atom_site_fract_x
 _atom_site_fract_y
 _atom_site_fract_z
 _atom_site_occupancy
  Zr  Zr0  1  0.25000000  0.01531224  0.81325009  1
  Zr  Zr1  1  0.25000000  0.51531224  0.68674991  1
  Zr  Zr2  1  0.75000000  0.98468776  0.18674991  1
  Zr  Zr3  1  0.75000000  0.48468776  0.31325009  1
  Si  Si4  1  0.25000000  0.77438083  0.38796826  1
  Si  Si5  1  0.25000000  0.27438083  0.11203174  1
  Si  Si6  1  0.75000000  0.22561917  0.61203174  1
  Si  Si7  1  0.75000000  0.72561917  0.88796826  1
  Ni  Ni8  1  0.25000000  0.13941274  0.43887072  1
  Ni  Ni9  1  0.25000000  0.63941274  0.06112928  1
  Ni  Ni10  1  0.75000000  0.86058726  0.56112928  1
  Ni  Ni11  1  0.75000000  0.36058726  0.93887072  1
