# generated using pymatgen
data_UTeS
_symmetry_space_group_name_H-M   'P 1'
_cell_length_a   4.31779027
_cell_length_b   7.72932334
_cell_length_c   8.94853470
_cell_angle_alpha   90.00000000
_cell_angle_beta   90.00000000
_cell_angle_gamma   90.00000000
_symmetry_Int_Tables_number   1
_chemical_formula_structural   UTeS
_chemical_formula_sum   'U4 Te4 S4'
_cell_volume   298.64479181
_cell_formula_units_Z   4
loop_
 _symmetry_equiv_pos_site_id
 _symmetry_equiv_pos_as_xyz
  1  'x, y, z'
loop_
 _atom_site_type_symbol
 _atom_site_label
 _atom_site_symmetry_multiplicity
 _atom_site_fract_x
 _atom_site_fract_y
 _atom_site_fract_z
 _atom_site_occupancy
  U  U0  1  0.25000000  0.20964510  0.87864678  1
  U  U1  1  0.75000000  0.79035490  0.12135322  1
  U  U2  1  0.25000000  0.70964510  0.62135322  1
  U  U3  1  0.75000000  0.29035490  0.37864678  1
  Te  Te4  1  0.25000000  0.97329529  0.33727113  1
  Te  Te5  1  0.75000000  0.52670471  0.83727113  1
  Te  Te6  1  0.25000000  0.47329529  0.16272887  1
  Te  Te7  1  0.75000000  0.02670471  0.66272887  1
  S  S8  1  0.75000000  0.14733029  0.06769825  1
  S  S9  1  0.25000000  0.35266971  0.56769825  1
  S  S10  1  0.75000000  0.64733029  0.43230175  1
  S  S11  1  0.25000000  0.85266971  0.93230175  1
