# generated using pymatgen
data_LuNi5
_symmetry_space_group_name_H-M   'P 1'
_cell_length_a   4.77515008
_cell_length_b   4.77513353
_cell_length_c   3.90311511
_cell_angle_alpha   90.00000000
_cell_angle_beta   90.00000000
_cell_angle_gamma   119.99567256
_symmetry_Int_Tables_number   1
_chemical_formula_structural   LuNi5
_chemical_formula_sum   'Lu1 Ni5'
_cell_volume   77.07853902
_cell_formula_units_Z   1
loop_
 _symmetry_equiv_pos_site_id
 _symmetry_equiv_pos_as_xyz
  1  'x, y, z'
loop_
 _atom_site_type_symbol
 _atom_site_label
 _atom_site_symmetry_multiplicity
 _atom_site_fract_x
 _atom_site_fract_y
 _atom_site_fract_z
 _atom_site_occupancy
  Lu  Lu0  1  0.00000000  0.00000000  0.00000000  1
  Ni  Ni1  1  0.00000000  0.50000000  0.50000000  1
  Ni  Ni2  1  0.33331028  0.66667221  -0.00000000  1
  Ni  Ni3  1  0.66668972  0.33332779  -0.00000000  1
  Ni  Ni4  1  0.50000000  0.00000000  0.50000000  1
  Ni  Ni5  1  0.50000000  0.50000000  0.50000000  1
