# generated using pymatgen
data_TmGa
_symmetry_space_group_name_H-M   'P 1'
_cell_length_a   3.98898502
_cell_length_b   4.26335904
_cell_length_c   5.71704687
_cell_angle_alpha   111.89234617
_cell_angle_beta   90.00000000
_cell_angle_gamma   90.00000000
_symmetry_Int_Tables_number   1
_chemical_formula_structural   TmGa
_chemical_formula_sum   'Tm2 Ga2'
_cell_volume   90.21540893
_cell_formula_units_Z   2
loop_
 _symmetry_equiv_pos_site_id
 _symmetry_equiv_pos_as_xyz
  1  'x, y, z'
loop_
 _atom_site_type_symbol
 _atom_site_label
 _atom_site_symmetry_multiplicity
 _atom_site_fract_x
 _atom_site_fract_y
 _atom_site_fract_z
 _atom_site_occupancy
  Tm  Tm0  1  0.75000000  0.13885413  0.27770927  1
  Tm  Tm1  1  0.25000000  0.86114587  0.72229073  1
  Ga  Ga2  1  0.75000000  0.42323519  0.84646839  1
  Ga  Ga3  1  0.25000000  0.57676481  0.15353161  1
