# generated using pymatgen
data_ErCo3Si2
_symmetry_space_group_name_H-M   'P 1'
_cell_length_a   6.18364668
_cell_length_b   6.18364668
_cell_length_c   6.18364668
_cell_angle_alpha   130.39964820
_cell_angle_beta   113.54118120
_cell_angle_gamma   87.27608804
_symmetry_Int_Tables_number   1
_chemical_formula_structural   ErCo3Si2
_chemical_formula_sum   'Er2 Co6 Si4'
_cell_volume   157.33336205
_cell_formula_units_Z   2
loop_
 _symmetry_equiv_pos_site_id
 _symmetry_equiv_pos_as_xyz
  1  'x, y, z'
loop_
 _atom_site_type_symbol
 _atom_site_label
 _atom_site_symmetry_multiplicity
 _atom_site_fract_x
 _atom_site_fract_y
 _atom_site_fract_z
 _atom_site_occupancy
  Er  Er0  1  0.25000000  0.53482438  0.28482438  1
  Er  Er1  1  0.75000000  0.46517562  0.71517562  1
  Co  Co2  1  0.00000000  0.00000000  0.50000000  1
  Co  Co3  1  0.50000000  0.00000000  0.00000000  1
  Co  Co4  1  0.72124166  0.00000000  0.72124166  1
  Co  Co5  1  0.22124166  0.50000000  0.72124166  1
  Co  Co6  1  0.27875834  0.00000000  0.27875834  1
  Co  Co7  1  0.77875834  0.50000000  0.27875834  1
  Si  Si8  1  0.07985351  0.87705689  0.79720338  1
  Si  Si9  1  0.92014649  0.12294311  0.20279662  1
  Si  Si10  1  0.57985351  0.78265112  0.20279662  1
  Si  Si11  1  0.42014649  0.21734888  0.79720338  1
