# generated using pymatgen
data_YbPrSe2
_symmetry_space_group_name_H-M   'P 1'
_cell_length_a   7.41323259
_cell_length_b   7.41323259
_cell_length_c   7.41323263
_cell_angle_alpha   31.57737640
_cell_angle_beta   31.57737640
_cell_angle_gamma   31.57738172
_symmetry_Int_Tables_number   1
_chemical_formula_structural   YbPrSe2
_chemical_formula_sum   'Yb1 Pr1 Se2'
_cell_volume   99.19086091
_cell_formula_units_Z   1
loop_
 _symmetry_equiv_pos_site_id
 _symmetry_equiv_pos_as_xyz
  1  'x, y, z'
loop_
 _atom_site_type_symbol
 _atom_site_label
 _atom_site_symmetry_multiplicity
 _atom_site_fract_x
 _atom_site_fract_y
 _atom_site_fract_z
 _atom_site_occupancy
  Yb  Yb0  1  0.50000000  0.50000000  0.50000000  1
  Pr  Pr1  1  0.00000000  0.00000000  0.00000000  1
  Se  Se2  1  0.24098244  0.24098244  0.24098244  1
  Se  Se3  1  0.75901756  0.75901756  0.75901756  1
