# generated using pymatgen
data_NdAsS
_symmetry_space_group_name_H-M   'P 1'
_cell_length_a   3.98186035
_cell_length_b   3.91431644
_cell_length_c   17.54069574
_cell_angle_alpha   90.00000000
_cell_angle_beta   90.00000000
_cell_angle_gamma   89.98532574
_symmetry_Int_Tables_number   1
_chemical_formula_structural   NdAsS
_chemical_formula_sum   'Nd4 As4 S4'
_cell_volume   273.39386031
_cell_formula_units_Z   4
loop_
 _symmetry_equiv_pos_site_id
 _symmetry_equiv_pos_as_xyz
  1  'x, y, z'
loop_
 _atom_site_type_symbol
 _atom_site_label
 _atom_site_symmetry_multiplicity
 _atom_site_fract_x
 _atom_site_fract_y
 _atom_site_fract_z
 _atom_site_occupancy
  Nd  Nd0  1  0.77208473  0.25009401  0.14552846  1
  Nd  Nd1  1  0.72791527  0.24990599  0.64552846  1
  Nd  Nd2  1  0.22791527  0.74990599  0.85447154  1
  Nd  Nd3  1  0.27208473  0.75009401  0.35447154  1
  As  As4  1  0.79540331  0.75079093  0.49804297  1
  As  As5  1  0.70459669  0.74920907  0.99804297  1
  As  As6  1  0.20459669  0.24920907  0.50195703  1
  As  As7  1  0.29540331  0.25079093  0.00195703  1
  S  S8  1  0.76983639  0.25023170  0.31323781  1
  S  S9  1  0.73016361  0.24976830  0.81323781  1
  S  S10  1  0.23016361  0.74976830  0.68676219  1
  S  S11  1  0.26983639  0.75023170  0.18676219  1
