# generated using pymatgen
data_Cd2TeSe
_symmetry_space_group_name_H-M   'P 1'
_cell_length_a   7.77751807
_cell_length_b   7.77751807
_cell_length_c   7.77751866
_cell_angle_alpha   33.58901845
_cell_angle_beta   33.58901845
_cell_angle_gamma   33.58901693
_symmetry_Int_Tables_number   1
_chemical_formula_structural   Cd2TeSe
_chemical_formula_sum   'Cd2 Te1 Se1'
_cell_volume   128.26350968
_cell_formula_units_Z   1
loop_
 _symmetry_equiv_pos_site_id
 _symmetry_equiv_pos_as_xyz
  1  'x, y, z'
loop_
 _atom_site_type_symbol
 _atom_site_label
 _atom_site_symmetry_multiplicity
 _atom_site_fract_x
 _atom_site_fract_y
 _atom_site_fract_z
 _atom_site_occupancy
  Cd  Cd0  1  0.99496363  0.99496363  0.99496363  1
  Cd  Cd1  1  0.50498037  0.50498037  0.50498037  1
  Te  Te2  1  0.37597073  0.37597073  0.37597073  1
  Se  Se3  1  0.87408427  0.87408427  0.87408427  1
