# generated using pymatgen
data_GaMo2C
_symmetry_space_group_name_H-M   'P 1'
_cell_length_a   3.04755040
_cell_length_b   3.04755040
_cell_length_c   13.14886812
_cell_angle_alpha   90.00000000
_cell_angle_beta   90.00000000
_cell_angle_gamma   120.00000227
_symmetry_Int_Tables_number   1
_chemical_formula_structural   GaMo2C
_chemical_formula_sum   'Ga2 Mo4 C2'
_cell_volume   105.75984020
_cell_formula_units_Z   2
loop_
 _symmetry_equiv_pos_site_id
 _symmetry_equiv_pos_as_xyz
  1  'x, y, z'
loop_
 _atom_site_type_symbol
 _atom_site_label
 _atom_site_symmetry_multiplicity
 _atom_site_fract_x
 _atom_site_fract_y
 _atom_site_fract_z
 _atom_site_occupancy
  Ga  Ga0  1  0.33333300  0.66666700  0.75000000  1
  Ga  Ga1  1  0.66666700  0.33333300  0.25000000  1
  Mo  Mo2  1  0.33333300  0.66666700  0.41065073  1
  Mo  Mo3  1  0.66666700  0.33333300  0.58934927  1
  Mo  Mo4  1  0.66666700  0.33333300  0.91065073  1
  Mo  Mo5  1  0.33333300  0.66666700  0.08934927  1
  C  C6  1  0.00000000  -0.00000000  0.50000000  1
  C  C7  1  0.00000000  -0.00000000  0.00000000  1
