# generated using pymatgen
data_CeGa2Ni
_symmetry_space_group_name_H-M   'P 1'
_cell_length_a   8.95572641
_cell_length_b   8.95572641
_cell_length_c   4.14243002
_cell_angle_alpha   90.00000000
_cell_angle_beta   90.00000000
_cell_angle_gamma   153.07926644
_symmetry_Int_Tables_number   1
_chemical_formula_structural   CeGa2Ni
_chemical_formula_sum   'Ce2 Ga4 Ni2'
_cell_volume   150.42581269
_cell_formula_units_Z   2
loop_
 _symmetry_equiv_pos_site_id
 _symmetry_equiv_pos_as_xyz
  1  'x, y, z'
loop_
 _atom_site_type_symbol
 _atom_site_label
 _atom_site_symmetry_multiplicity
 _atom_site_fract_x
 _atom_site_fract_y
 _atom_site_fract_z
 _atom_site_occupancy
  Ce  Ce0  1  0.35884669  0.64115331  0.50000000  1
  Ce  Ce1  1  0.64115331  0.35884669  0.50000000  1
  Ga  Ga2  1  0.20989930  0.79010070  -0.00000000  1
  Ga  Ga3  1  0.79010070  0.20989930  0.00000000  1
  Ga  Ga4  1  0.00000000  -0.00000000  0.50000000  1
  Ga  Ga5  1  0.50000000  0.50000000  -0.00000000  1
  Ni  Ni6  1  0.07283892  0.92716108  0.00000000  1
  Ni  Ni7  1  0.92716108  0.07283892  -0.00000000  1
