# generated using pymatgen
data_CdIn3
_symmetry_space_group_name_H-M   'P 1'
_cell_length_a   6.53557902
_cell_length_b   6.53557902
_cell_length_c   5.54680951
_cell_angle_alpha   90.00000000
_cell_angle_beta   90.00000000
_cell_angle_gamma   119.99999474
_symmetry_Int_Tables_number   1
_chemical_formula_structural   CdIn3
_chemical_formula_sum   'Cd2 In6'
_cell_volume   205.18331691
_cell_formula_units_Z   2
loop_
 _symmetry_equiv_pos_site_id
 _symmetry_equiv_pos_as_xyz
  1  'x, y, z'
loop_
 _atom_site_type_symbol
 _atom_site_label
 _atom_site_symmetry_multiplicity
 _atom_site_fract_x
 _atom_site_fract_y
 _atom_site_fract_z
 _atom_site_occupancy
  Cd  Cd0  1  0.33333300  0.66666700  0.75000000  1
  Cd  Cd1  1  0.66666700  0.33333300  0.25000000  1
  In  In2  1  0.16697041  0.33393981  0.25000000  1
  In  In3  1  0.66606019  0.83302959  0.25000000  1
  In  In4  1  0.16697041  0.83302959  0.25000000  1
  In  In5  1  0.83302959  0.66606019  0.75000000  1
  In  In6  1  0.33393981  0.16697041  0.75000000  1
  In  In7  1  0.83302959  0.16697041  0.75000000  1
