# generated using pymatgen
data_Ca2Zn3Ga
_symmetry_space_group_name_H-M   'P 1'
_cell_length_a   5.72475617
_cell_length_b   5.72475617
_cell_length_c   7.29801771
_cell_angle_alpha   50.74889384
_cell_angle_beta   50.74889384
_cell_angle_gamma   45.87201473
_symmetry_Int_Tables_number   1
_chemical_formula_structural   Ca2Zn3Ga
_chemical_formula_sum   'Ca2 Zn3 Ga1'
_cell_volume   124.74492792
_cell_formula_units_Z   1
loop_
 _symmetry_equiv_pos_site_id
 _symmetry_equiv_pos_as_xyz
  1  'x, y, z'
loop_
 _atom_site_type_symbol
 _atom_site_label
 _atom_site_symmetry_multiplicity
 _atom_site_fract_x
 _atom_site_fract_y
 _atom_site_fract_z
 _atom_site_occupancy
  Ca  Ca0  1  0.45602366  0.45602366  0.79477584  1
  Ca  Ca1  1  0.54456658  0.54456658  0.20354226  1
  Zn  Zn2  1  0.16204866  0.16204866  0.38930141  1
  Zn  Zn3  1  0.16552468  0.16552468  0.78138320  1
  Zn  Zn4  1  0.83562244  0.83562244  0.22572352  1
  Ga  Ga5  1  0.83621298  0.83621298  0.60527376  1
