# generated using pymatgen
data_EuSbPd
_symmetry_space_group_name_H-M   'P 1'
_cell_length_a   4.70593470
_cell_length_b   7.63308433
_cell_length_c   7.97892291
_cell_angle_alpha   89.99858280
_cell_angle_beta   90.00000000
_cell_angle_gamma   90.00000000
_symmetry_Int_Tables_number   1
_chemical_formula_structural   EuSbPd
_chemical_formula_sum   'Eu4 Sb4 Pd4'
_cell_volume   286.60926543
_cell_formula_units_Z   4
loop_
 _symmetry_equiv_pos_site_id
 _symmetry_equiv_pos_as_xyz
  1  'x, y, z'
loop_
 _atom_site_type_symbol
 _atom_site_label
 _atom_site_symmetry_multiplicity
 _atom_site_fract_x
 _atom_site_fract_y
 _atom_site_fract_z
 _atom_site_occupancy
  Eu  Eu0  1  0.25000000  0.00692083  0.29729532  1
  Eu  Eu1  1  0.25000000  0.50694830  0.20270034  1
  Eu  Eu2  1  0.75000000  0.99308017  0.70271654  1
  Eu  Eu3  1  0.75000000  0.49300276  0.79726510  1
  Sb  Sb4  1  0.25000000  0.69641555  0.59242661  1
  Sb  Sb5  1  0.25000000  0.19663912  0.90766576  1
  Sb  Sb6  1  0.75000000  0.30350804  0.40766714  1
  Sb  Sb7  1  0.75000000  0.80337606  0.09229387  1
  Pd  Pd8  1  0.25000000  0.31436100  0.58070645  1
  Pd  Pd9  1  0.25000000  0.81447861  0.91919941  1
  Pd  Pd10  1  0.75000000  0.68563537  0.41928135  1
  Pd  Pd11  1  0.75000000  0.18563417  0.08078409  1
