# generated using pymatgen
data_EuAlAu
_symmetry_space_group_name_H-M   'P 1'
_cell_length_a   4.62465214
_cell_length_b   7.53465221
_cell_length_c   7.71137775
_cell_angle_alpha   90.00196137
_cell_angle_beta   89.99997352
_cell_angle_gamma   89.99999955
_symmetry_Int_Tables_number   1
_chemical_formula_structural   EuAlAu
_chemical_formula_sum   'Eu4 Al4 Au4'
_cell_volume   268.70407937
_cell_formula_units_Z   4
loop_
 _symmetry_equiv_pos_site_id
 _symmetry_equiv_pos_as_xyz
  1  'x, y, z'
loop_
 _atom_site_type_symbol
 _atom_site_label
 _atom_site_symmetry_multiplicity
 _atom_site_fract_x
 _atom_site_fract_y
 _atom_site_fract_z
 _atom_site_occupancy
  Eu  Eu0  1  0.25000090  0.01565998  0.31956315  1
  Eu  Eu1  1  0.25000055  0.51566368  0.18039922  1
  Eu  Eu2  1  0.74999925  0.98434370  0.68043756  1
  Eu  Eu3  1  0.74999870  0.48433755  0.81959925  1
  Al  Al4  1  0.24999998  0.15453141  0.92742365  1
  Al  Al5  1  0.24999987  0.65451876  0.57256429  1
  Al  Al6  1  0.75000024  0.84547116  0.07257492  1
  Al  Al7  1  0.75000025  0.34548417  0.42743625  1
  Au  Au8  1  0.25000000  0.29980454  0.60868351  1
  Au  Au9  1  0.25000006  0.79972730  0.89129917  1
  Au  Au10  1  0.75000008  0.70019975  0.39131918  1
  Au  Au11  1  0.75000011  0.20025800  0.10869985  1
