# generated using pymatgen
data_In2Bi
_symmetry_space_group_name_H-M   'P 1'
_cell_length_a   7.83991291
_cell_length_b   7.71889280
_cell_length_c   3.43944782
_cell_angle_alpha   79.20285449
_cell_angle_beta   75.26970701
_cell_angle_gamma   25.52743850
_symmetry_Int_Tables_number   1
_chemical_formula_structural   In2Bi
_chemical_formula_sum   'In2 Bi1'
_cell_volume   86.30438469
_cell_formula_units_Z   1
loop_
 _symmetry_equiv_pos_site_id
 _symmetry_equiv_pos_as_xyz
  1  'x, y, z'
loop_
 _atom_site_type_symbol
 _atom_site_label
 _atom_site_symmetry_multiplicity
 _atom_site_fract_x
 _atom_site_fract_y
 _atom_site_fract_z
 _atom_site_occupancy
  In  In0  1  0.32969869  0.32969869  0.67030131  1
  In  In1  1  0.67030131  0.67030131  0.32969869  1
  Bi  Bi2  1  -0.00000000  0.00000000  0.00000000  1
