# generated using pymatgen
data_DyAlPt
_symmetry_space_group_name_H-M   'P 1'
_cell_length_a   4.39509261
_cell_length_b   6.89972030
_cell_length_c   7.71027522
_cell_angle_alpha   89.99890334
_cell_angle_beta   90.00000000
_cell_angle_gamma   90.00000000
_symmetry_Int_Tables_number   1
_chemical_formula_structural   DyAlPt
_chemical_formula_sum   'Dy4 Al4 Pt4'
_cell_volume   233.81339980
_cell_formula_units_Z   4
loop_
 _symmetry_equiv_pos_site_id
 _symmetry_equiv_pos_as_xyz
  1  'x, y, z'
loop_
 _atom_site_type_symbol
 _atom_site_label
 _atom_site_symmetry_multiplicity
 _atom_site_fract_x
 _atom_site_fract_y
 _atom_site_fract_z
 _atom_site_occupancy
  Dy  Dy0  1  0.25000000  0.47150734  0.18129554  1
  Dy  Dy1  1  0.75000000  0.52849397  0.81872333  1
  Dy  Dy2  1  0.75000000  0.02849510  0.68124621  1
  Dy  Dy3  1  0.25000000  0.97150374  0.31873558  1
  Al  Al4  1  0.25000000  0.85672810  0.93568548  1
  Al  Al5  1  0.75000000  0.14327358  0.06432245  1
  Al  Al6  1  0.75000000  0.64327077  0.43566644  1
  Al  Al7  1  0.25000000  0.35672631  0.56432439  1
  Pt  Pt8  1  0.25000000  0.72715741  0.61646628  1
  Pt  Pt9  1  0.75000000  0.27284079  0.38349904  1
  Pt  Pt10  1  0.75000000  0.77284457  0.11653365  1
  Pt  Pt11  1  0.25000000  0.22715831  0.88350162  1
