# generated using pymatgen
data_Er2ReB6
_symmetry_space_group_name_H-M   'P 1'
_cell_length_a   3.64951580
_cell_length_b   9.11086909
_cell_length_c   11.47171638
_cell_angle_alpha   89.99830956
_cell_angle_beta   90.00000276
_cell_angle_gamma   90.00000182
_symmetry_Int_Tables_number   1
_chemical_formula_structural   Er2ReB6
_chemical_formula_sum   'Er8 Re4 B24'
_cell_volume   381.43756018
_cell_formula_units_Z   4
loop_
 _symmetry_equiv_pos_site_id
 _symmetry_equiv_pos_as_xyz
  1  'x, y, z'
loop_
 _atom_site_type_symbol
 _atom_site_label
 _atom_site_symmetry_multiplicity
 _atom_site_fract_x
 _atom_site_fract_y
 _atom_site_fract_z
 _atom_site_occupancy
  Er  Er0  1  0.00000051  0.32353779  0.41399610  1
  Er  Er1  1  0.00000006  0.67646053  0.58601629  1
  Er  Er2  1  -0.00000024  0.82358950  0.08600763  1
  Er  Er3  1  0.00000022  0.17640641  0.91398088  1
  Er  Er4  1  -0.00000011  0.94287493  0.36983136  1
  Er  Er5  1  0.00000013  0.05712354  0.63018227  1
  Er  Er6  1  0.00000004  0.44277939  0.13020630  1
  Er  Er7  1  -0.00000020  0.55722097  0.86978343  1
  Re  Re8  1  0.00000010  0.63855348  0.32059361  1
  Re  Re9  1  0.00000023  0.36144883  0.67940117  1
  Re  Re10  1  0.00000031  0.13854771  0.17938038  1
  Re  Re11  1  -0.00000001  0.86145966  0.82062316  1
  B  B12  1  0.49999969  0.55318675  0.43308266  1
  B  B13  1  0.50000014  0.44681757  0.56690918  1
  B  B14  1  0.50000007  0.05315852  0.06689943  1
  B  B15  1  0.50000000  0.94683895  0.93310743  1
  B  B16  1  0.49999971  0.74953168  0.41889392  1
  B  B17  1  0.50000003  0.25046571  0.58110186  1
  B  B18  1  0.49999981  0.24948731  0.08111603  1
  B  B19  1  0.50000009  0.75050899  0.91888914  1
  B  B20  1  0.49999963  0.79221620  0.26484454  1
  B  B21  1  0.49999996  0.20778082  0.73515887  1
  B  B22  1  0.49999983  0.29215319  0.23515091  1
  B  B23  1  0.50000015  0.70784357  0.76484563  1
  B  B24  1  0.49999978  0.63063321  0.18515225  1
  B  B25  1  0.50000028  0.36936943  0.81485086  1
  B  B26  1  0.50000007  0.13062130  0.31482429  1
  B  B27  1  0.50000003  0.86937799  0.68517209  1
  B  B28  1  0.49999977  0.98179071  0.21184527  1
  B  B29  1  0.49999985  0.01820877  0.78815607  1
  B  B30  1  0.49999967  0.48178486  0.28815663  1
  B  B31  1  0.50000015  0.51822036  0.71184307  1
  B  B32  1  0.50000024  0.59961258  0.02779107  1
  B  B33  1  0.50000013  0.40039014  0.97221243  1
  B  B34  1  0.49999995  0.09958680  0.47220654  1
  B  B35  1  0.49999997  0.90041184  0.52778924  1
