# generated using pymatgen
data_Ca2ZnGa3
_symmetry_space_group_name_H-M   'P 1'
_cell_length_a   5.73439551
_cell_length_b   5.73439551
_cell_length_c   7.32896742
_cell_angle_alpha   50.56146113
_cell_angle_beta   50.56146113
_cell_angle_gamma   45.81672854
_symmetry_Int_Tables_number   1
_chemical_formula_structural   Ca2ZnGa3
_chemical_formula_sum   'Ca2 Zn1 Ga3'
_cell_volume   125.15103645
_cell_formula_units_Z   1
loop_
 _symmetry_equiv_pos_site_id
 _symmetry_equiv_pos_as_xyz
  1  'x, y, z'
loop_
 _atom_site_type_symbol
 _atom_site_label
 _atom_site_symmetry_multiplicity
 _atom_site_fract_x
 _atom_site_fract_y
 _atom_site_fract_z
 _atom_site_occupancy
  Ca  Ca0  1  0.45808219  0.45808219  0.79209152  1
  Ca  Ca1  1  0.54317094  0.54317094  0.20799813  1
  Zn  Zn2  1  0.83311463  0.83311463  0.60597549  1
  Ga  Ga3  1  0.16002364  0.16002364  0.39711084  1
  Ga  Ga4  1  0.16524052  0.16524052  0.77884633  1
  Ga  Ga5  1  0.84036807  0.84036807  0.21797769  1
