# generated using pymatgen
data_Tb7RhBr12
_symmetry_space_group_name_H-M   'P 1'
_cell_length_a   9.19129512
_cell_length_b   9.19129512
_cell_length_c   9.19129445
_cell_angle_alpha   106.74217580
_cell_angle_beta   106.74217577
_cell_angle_gamma   106.74217939
_symmetry_Int_Tables_number   1
_chemical_formula_structural   Tb7RhBr12
_chemical_formula_sum   'Tb7 Rh1 Br12'
_cell_volume   651.15422464
_cell_formula_units_Z   1
loop_
 _symmetry_equiv_pos_site_id
 _symmetry_equiv_pos_as_xyz
  1  'x, y, z'
loop_
 _atom_site_type_symbol
 _atom_site_label
 _atom_site_symmetry_multiplicity
 _atom_site_fract_x
 _atom_site_fract_y
 _atom_site_fract_z
 _atom_site_occupancy
  Tb  Tb0  1  0.31007063  0.10067855  0.02151967  1
  Tb  Tb1  1  0.02151967  0.31007063  0.10067855  1
  Tb  Tb2  1  0.10067855  0.02151967  0.31007063  1
  Tb  Tb3  1  0.68992937  0.89932145  0.97848033  1
  Tb  Tb4  1  0.97848033  0.68992937  0.89932145  1
  Tb  Tb5  1  0.89932145  0.97848033  0.68992937  1
  Tb  Tb6  1  0.50000000  0.50000000  0.50000000  1
  Rh  Rh7  1  -0.00000000  0.00000000  0.00000000  1
  Br  Br8  1  0.67588795  0.22389068  0.07221396  1
  Br  Br9  1  0.07221396  0.67588795  0.22389068  1
  Br  Br10  1  0.22389068  0.07221396  0.67588795  1
  Br  Br11  1  0.32411205  0.77610932  0.92778604  1
  Br  Br12  1  0.92778604  0.32411205  0.77610932  1
  Br  Br13  1  0.77610932  0.92778604  0.32411205  1
  Br  Br14  1  0.46497941  0.16703335  0.38665679  1
  Br  Br15  1  0.38665679  0.46497941  0.16703335  1
  Br  Br16  1  0.16703335  0.38665679  0.46497941  1
  Br  Br17  1  0.53502059  0.83296665  0.61334321  1
  Br  Br18  1  0.61334321  0.53502059  0.83296665  1
  Br  Br19  1  0.83296665  0.61334321  0.53502059  1
