# generated using pymatgen
data_MnZnTe2
_symmetry_space_group_name_H-M   'P 1'
_cell_length_a   7.65348764
_cell_length_b   7.65348764
_cell_length_c   7.65348811
_cell_angle_alpha   33.46744428
_cell_angle_beta   33.46744428
_cell_angle_gamma   33.46744523
_symmetry_Int_Tables_number   1
_chemical_formula_structural   MnZnTe2
_chemical_formula_sum   'Mn1 Zn1 Te2'
_cell_volume   121.41990816
_cell_formula_units_Z   1
loop_
 _symmetry_equiv_pos_site_id
 _symmetry_equiv_pos_as_xyz
  1  'x, y, z'
loop_
 _atom_site_type_symbol
 _atom_site_label
 _atom_site_symmetry_multiplicity
 _atom_site_fract_x
 _atom_site_fract_y
 _atom_site_fract_z
 _atom_site_occupancy
  Mn  Mn0  1  0.00072993  0.00072993  0.00072993  1
  Zn  Zn1  1  0.49975765  0.49975765  0.49975765  1
  Te  Te2  1  0.12720567  0.12720567  0.12720567  1
  Te  Te3  1  0.62230675  0.62230675  0.62230675  1
