# generated using pymatgen
data_HoNi4Au
_symmetry_space_group_name_H-M   'P 1'
_cell_length_a   4.86864760
_cell_length_b   4.86870629
_cell_length_c   4.86867176
_cell_angle_alpha   60.00537618
_cell_angle_beta   60.00496290
_cell_angle_gamma   60.00520718
_symmetry_Int_Tables_number   1
_chemical_formula_structural   HoNi4Au
_chemical_formula_sum   'Ho1 Ni4 Au1'
_cell_volume   81.61470883
_cell_formula_units_Z   1
loop_
 _symmetry_equiv_pos_site_id
 _symmetry_equiv_pos_as_xyz
  1  'x, y, z'
loop_
 _atom_site_type_symbol
 _atom_site_label
 _atom_site_symmetry_multiplicity
 _atom_site_fract_x
 _atom_site_fract_y
 _atom_site_fract_z
 _atom_site_occupancy
  Ho  Ho0  1  0.00001067  0.99998978  1.00000146  1
  Ni  Ni1  1  0.62409550  0.62408896  0.12772714  1
  Ni  Ni2  1  0.62409270  0.12773068  0.62409063  1
  Ni  Ni3  1  0.12772480  0.62409061  0.62409411  1
  Ni  Ni4  1  0.62409210  0.62408554  0.62408940  1
  Au  Au5  1  0.24998324  0.25001443  0.24999726  1
