# generated using pymatgen
data_NaCuF3
_symmetry_space_group_name_H-M   'P 1'
_cell_length_a   5.33820605
_cell_length_b   5.52609622
_cell_length_c   7.84460444
_cell_angle_alpha   89.35495005
_cell_angle_beta   87.58387967
_cell_angle_gamma   86.70598610
_symmetry_Int_Tables_number   1
_chemical_formula_structural   NaCuF3
_chemical_formula_sum   'Na4 Cu4 F12'
_cell_volume   230.81466908
_cell_formula_units_Z   4
loop_
 _symmetry_equiv_pos_site_id
 _symmetry_equiv_pos_as_xyz
  1  'x, y, z'
loop_
 _atom_site_type_symbol
 _atom_site_label
 _atom_site_symmetry_multiplicity
 _atom_site_fract_x
 _atom_site_fract_y
 _atom_site_fract_z
 _atom_site_occupancy
  Na  Na0  1  0.48720704  0.43944613  0.23962232  1
  Na  Na1  1  0.51279296  0.56055387  0.76037768  1
  Na  Na2  1  0.02654153  0.93600364  0.25972852  1
  Na  Na3  1  0.97345847  0.06399636  0.74027148  1
  Cu  Cu4  1  0.50000000  -0.00000000  -0.00000000  1
  Cu  Cu5  1  0.00000000  0.50000000  -0.00000000  1
  Cu  Cu6  1  0.50000000  -0.00000000  0.50000000  1
  Cu  Cu7  1  0.00000000  0.50000000  0.50000000  1
  F  F8  1  0.11289113  0.45234003  0.77223538  1
  F  F9  1  0.88710887  0.54765997  0.22776462  1
  F  F10  1  0.38648952  0.95744506  0.72853772  1
  F  F11  1  0.61351048  0.04255494  0.27146228  1
  F  F12  1  0.19256703  0.19644966  0.44961968  1
  F  F13  1  0.80743297  0.80355034  0.55038032  1
  F  F14  1  0.71821014  0.32265833  0.56301050  1
  F  F15  1  0.28178986  0.67734167  0.43698950  1
  F  F16  1  0.32289454  0.72224723  0.05504422  1
  F  F17  1  0.67710546  0.27775277  0.94495578  1
  F  F18  1  0.79746426  0.79457476  0.93119602  1
  F  F19  1  0.20253574  0.20542524  0.06880398  1
