# generated using pymatgen
data_Na2OsO4
_symmetry_space_group_name_H-M   'P 1'
_cell_length_a   9.47284678
_cell_length_b   9.47289357
_cell_length_c   3.17023793
_cell_angle_alpha   89.99999937
_cell_angle_beta   90.00000250
_cell_angle_gamma   120.00269060
_symmetry_Int_Tables_number   1
_chemical_formula_structural   Na2OsO4
_chemical_formula_sum   'Na6 Os3 O12'
_cell_volume   246.36209308
_cell_formula_units_Z   3
loop_
 _symmetry_equiv_pos_site_id
 _symmetry_equiv_pos_as_xyz
  1  'x, y, z'
loop_
 _atom_site_type_symbol
 _atom_site_label
 _atom_site_symmetry_multiplicity
 _atom_site_fract_x
 _atom_site_fract_y
 _atom_site_fract_z
 _atom_site_occupancy
  Na  Na0  1  0.00001883  0.00001095  -0.00000004  1
  Na  Na1  1  0.66666945  0.33334660  0.49999986  1
  Na  Na2  1  0.33332783  0.66666190  0.49999995  1
  Na  Na3  1  0.30573916  0.30573309  0.49999988  1
  Na  Na4  1  0.69425357  0.00000470  0.49999991  1
  Na  Na5  1  -0.00001910  0.69424021  0.49999997  1
  Os  Os6  1  0.67082175  0.67084221  0.00000005  1
  Os  Os7  1  0.32916952  -0.00001275  0.00000096  1
  Os  Os8  1  0.00001199  0.32917596  0.00000091  1
  O  O9  1  0.80805343  0.80804269  0.49999993  1
  O  O10  1  0.19196650  0.99999708  0.50000017  1
  O  O11  1  0.00000160  0.19195398  0.50000014  1
  O  O12  1  0.54217819  0.54218470  0.49999989  1
  O  O13  1  0.45782259  0.00000328  0.50000022  1
  O  O14  1  0.00000294  0.45781652  0.50000018  1
  O  O15  1  0.56654185  0.78512228  -0.00000021  1
  O  O16  1  0.21488139  0.78142884  -0.00000039  1
  O  O17  1  0.21856534  0.43344467  -0.00000039  1
  O  O18  1  0.78511384  0.56656302  -0.00000010  1
  O  O19  1  0.78142093  0.21486529  -0.00000046  1
  O  O20  1  0.43345940  0.21857578  -0.00000042  1
