# generated using pymatgen
data_TbSnGe
_symmetry_space_group_name_H-M   'P 1'
_cell_length_a   8.67429364
_cell_length_b   8.67429364
_cell_length_c   4.03472752
_cell_angle_alpha   90.00000000
_cell_angle_beta   90.00000000
_cell_angle_gamma   151.75336675
_symmetry_Int_Tables_number   1
_chemical_formula_structural   TbSnGe
_chemical_formula_sum   'Tb2 Sn2 Ge2'
_cell_volume   143.67774489
_cell_formula_units_Z   2
loop_
 _symmetry_equiv_pos_site_id
 _symmetry_equiv_pos_as_xyz
  1  'x, y, z'
loop_
 _atom_site_type_symbol
 _atom_site_label
 _atom_site_symmetry_multiplicity
 _atom_site_fract_x
 _atom_site_fract_y
 _atom_site_fract_z
 _atom_site_occupancy
  Tb  Tb0  1  0.90417690  0.09582310  0.75000000  1
  Tb  Tb1  1  0.09582310  0.90417690  0.25000000  1
  Sn  Sn2  1  0.25851661  0.74148339  0.75000000  1
  Sn  Sn3  1  0.74148339  0.25851661  0.25000000  1
  Ge  Ge4  1  0.54938212  0.45061788  0.75000000  1
  Ge  Ge5  1  0.45061788  0.54938212  0.25000000  1
