# generated using pymatgen
data_LaGaPt
_symmetry_space_group_name_H-M   'P 1'
_cell_length_a   4.55976904
_cell_length_b   7.29245548
_cell_length_c   7.79045185
_cell_angle_alpha   90.00000000
_cell_angle_beta   90.00000000
_cell_angle_gamma   90.00000000
_symmetry_Int_Tables_number   1
_chemical_formula_structural   LaGaPt
_chemical_formula_sum   'La4 Ga4 Pt4'
_cell_volume   259.04742499
_cell_formula_units_Z   4
loop_
 _symmetry_equiv_pos_site_id
 _symmetry_equiv_pos_as_xyz
  1  'x, y, z'
loop_
 _atom_site_type_symbol
 _atom_site_label
 _atom_site_symmetry_multiplicity
 _atom_site_fract_x
 _atom_site_fract_y
 _atom_site_fract_z
 _atom_site_occupancy
  La  La0  1  0.25000000  0.02574757  0.69433661  1
  La  La1  1  0.25000000  0.52574757  0.80566239  1
  La  La2  1  0.75000000  0.97425243  0.30566239  1
  La  La3  1  0.75000000  0.47425243  0.19433661  1
  Ga  Ga4  1  0.25000000  0.16276637  0.07510856  1
  Ga  Ga5  1  0.25000000  0.66276637  0.42489244  1
  Ga  Ga6  1  0.75000000  0.83723363  0.92489244  1
  Ga  Ga7  1  0.75000000  0.33723363  0.57510856  1
  Pt  Pt8  1  0.25000000  0.28525874  0.39962234  1
  Pt  Pt9  1  0.25000000  0.78525874  0.10037766  1
  Pt  Pt10  1  0.75000000  0.71474126  0.60037766  1
  Pt  Pt11  1  0.75000000  0.21474126  0.89962234  1
