# generated using pymatgen
data_ScSi7Ir3
_symmetry_space_group_name_H-M   'P 1'
_cell_length_a   7.93397922
_cell_length_b   7.93397922
_cell_length_c   7.93397997
_cell_angle_alpha   56.66898168
_cell_angle_beta   56.66898168
_cell_angle_gamma   56.66897604
_symmetry_Int_Tables_number   1
_chemical_formula_structural   ScSi7Ir3
_chemical_formula_sum   'Sc2 Si14 Ir6'
_cell_volume   325.98151324
_cell_formula_units_Z   2
loop_
 _symmetry_equiv_pos_site_id
 _symmetry_equiv_pos_as_xyz
  1  'x, y, z'
loop_
 _atom_site_type_symbol
 _atom_site_label
 _atom_site_symmetry_multiplicity
 _atom_site_fract_x
 _atom_site_fract_y
 _atom_site_fract_z
 _atom_site_occupancy
  Sc  Sc0  1  0.00000000  0.00000000  -0.00000000  1
  Sc  Sc1  1  0.50000000  0.50000000  0.50000000  1
  Si  Si2  1  0.75000000  0.75000000  0.75000000  1
  Si  Si3  1  0.25000000  0.25000000  0.25000000  1
  Si  Si4  1  0.85073180  0.06318936  0.67341365  1
  Si  Si5  1  0.67341365  0.85073180  0.06318936  1
  Si  Si6  1  0.06318936  0.67341365  0.85073180  1
  Si  Si7  1  0.64926820  0.82658635  0.43681064  1
  Si  Si8  1  0.43681064  0.64926820  0.82658635  1
  Si  Si9  1  0.82658635  0.43681064  0.64926820  1
  Si  Si10  1  0.17341365  0.56318936  0.35073180  1
  Si  Si11  1  0.56318936  0.35073180  0.17341365  1
  Si  Si12  1  0.35073180  0.17341365  0.56318936  1
  Si  Si13  1  0.93681064  0.32658635  0.14926820  1
  Si  Si14  1  0.32658635  0.14926820  0.93681064  1
  Si  Si15  1  0.14926820  0.93681064  0.32658635  1
  Ir  Ir16  1  0.07362955  0.42637045  0.75000000  1
  Ir  Ir17  1  0.25000000  0.92637045  0.57362955  1
  Ir  Ir18  1  0.57362955  0.25000000  0.92637045  1
  Ir  Ir19  1  0.92637045  0.57362955  0.25000000  1
  Ir  Ir20  1  0.42637045  0.75000000  0.07362955  1
  Ir  Ir21  1  0.75000000  0.07362955  0.42637045  1
