# generated using pymatgen
data_U2W2C3
_symmetry_space_group_name_H-M   'P 1'
_cell_length_a   5.98128883
_cell_length_b   5.98128883
_cell_length_c   5.62162976
_cell_angle_alpha   75.43566822
_cell_angle_beta   75.43566822
_cell_angle_gamma   31.26510012
_symmetry_Int_Tables_number   1
_chemical_formula_structural   U2W2C3
_chemical_formula_sum   'U2 W2 C3'
_cell_volume   100.75865487
_cell_formula_units_Z   1
loop_
 _symmetry_equiv_pos_site_id
 _symmetry_equiv_pos_as_xyz
  1  'x, y, z'
loop_
 _atom_site_type_symbol
 _atom_site_label
 _atom_site_symmetry_multiplicity
 _atom_site_fract_x
 _atom_site_fract_y
 _atom_site_fract_z
 _atom_site_occupancy
  U  U0  1  0.39486111  0.39486111  0.33199924  1
  U  U1  1  0.60513889  0.60513889  0.66800076  1
  W  W2  1  0.15437305  0.15437305  0.12315112  1
  W  W3  1  0.84562695  0.84562695  0.87684888  1
  C  C4  1  0.74226891  0.74226891  0.25898498  1
  C  C5  1  0.25773109  0.25773109  0.74101502  1
  C  C6  1  0.00000000  0.00000000  -0.00000000  1
