# generated using pymatgen
data_Rb4Fe2S5
_symmetry_space_group_name_H-M   'P 1'
_cell_length_a   7.50806329
_cell_length_b   8.46269083
_cell_length_c   10.37403901
_cell_angle_alpha   77.80538343
_cell_angle_beta   84.28899909
_cell_angle_gamma   80.40607385
_symmetry_Int_Tables_number   1
_chemical_formula_structural   Rb4Fe2S5
_chemical_formula_sum   'Rb8 Fe4 S10'
_cell_volume   633.85007074
_cell_formula_units_Z   2
loop_
 _symmetry_equiv_pos_site_id
 _symmetry_equiv_pos_as_xyz
  1  'x, y, z'
loop_
 _atom_site_type_symbol
 _atom_site_label
 _atom_site_symmetry_multiplicity
 _atom_site_fract_x
 _atom_site_fract_y
 _atom_site_fract_z
 _atom_site_occupancy
  Rb  Rb0  1  0.94337821  0.89089867  0.24344412  1
  Rb  Rb1  1  0.05662179  0.10910133  0.75655588  1
  Rb  Rb2  1  0.57750012  0.16964859  0.91323526  1
  Rb  Rb3  1  0.42249988  0.83035141  0.08676474  1
  Rb  Rb4  1  0.40921567  0.78730370  0.48745278  1
  Rb  Rb5  1  0.59078433  0.21269630  0.51254722  1
  Rb  Rb6  1  0.20908182  0.57666373  0.86870797  1
  Rb  Rb7  1  0.79091818  0.42333627  0.13129203  1
  Fe  Fe8  1  0.73092962  0.76545237  0.77815661  1
  Fe  Fe9  1  0.26907038  0.23454763  0.22184339  1
  Fe  Fe10  1  0.91149590  0.58578454  0.59293642  1
  Fe  Fe11  1  0.08850410  0.41421546  0.40706358  1
  S  S12  1  0.84484586  0.80552605  0.95649967  1
  S  S13  1  0.15515414  0.19447395  0.04350033  1
  S  S14  1  0.45321408  0.90343941  0.75918420  1
  S  S15  1  0.54678592  0.09656059  0.24081580  1
  S  S16  1  0.91138705  0.84557906  0.59546135  1
  S  S17  1  0.08861295  0.15442094  0.40453865  1
  S  S18  1  0.74126722  0.49679117  0.77228493  1
  S  S19  1  0.25873278  0.50320883  0.22771507  1
  S  S20  1  0.80409023  0.54523565  0.41207797  1
  S  S21  1  0.19590977  0.45476435  0.58792203  1
