# generated using pymatgen
data_Zr2MnFe3
_symmetry_space_group_name_H-M   'P 1'
_cell_length_a   5.08256315
_cell_length_b   5.08256404
_cell_length_c   5.08257088
_cell_angle_alpha   58.94181599
_cell_angle_beta   58.94173045
_cell_angle_gamma   58.94178474
_symmetry_Int_Tables_number   1
_chemical_formula_structural   Zr2MnFe3
_chemical_formula_sum   'Zr2 Mn1 Fe3'
_cell_volume   90.59799829
_cell_formula_units_Z   1
loop_
 _symmetry_equiv_pos_site_id
 _symmetry_equiv_pos_as_xyz
  1  'x, y, z'
loop_
 _atom_site_type_symbol
 _atom_site_label
 _atom_site_symmetry_multiplicity
 _atom_site_fract_x
 _atom_site_fract_y
 _atom_site_fract_z
 _atom_site_occupancy
  Zr  Zr0  1  0.12455788  0.12455988  0.12455266  1
  Zr  Zr1  1  0.87544212  0.87544012  0.87544734  1
  Mn  Mn2  1  0.50000000  0.50000000  0.50000000  1
  Fe  Fe3  1  0.50000000  -0.00000000  0.50000000  1
  Fe  Fe4  1  0.00000000  0.50000000  0.50000000  1
  Fe  Fe5  1  0.50000000  0.50000000  0.00000000  1
