# generated using pymatgen
data_PrAg2
_symmetry_space_group_name_H-M   'P 1'
_cell_length_a   4.79842994
_cell_length_b   5.96577253
_cell_length_c   5.96573040
_cell_angle_alpha   74.48430197
_cell_angle_beta   66.14464818
_cell_angle_gamma   66.14409461
_symmetry_Int_Tables_number   1
_chemical_formula_structural   PrAg2
_chemical_formula_sum   'Pr2 Ag4'
_cell_volume   141.73655140
_cell_formula_units_Z   2
loop_
 _symmetry_equiv_pos_site_id
 _symmetry_equiv_pos_as_xyz
  1  'x, y, z'
loop_
 _atom_site_type_symbol
 _atom_site_label
 _atom_site_symmetry_multiplicity
 _atom_site_fract_x
 _atom_site_fract_y
 _atom_site_fract_z
 _atom_site_occupancy
  Pr  Pr0  1  0.53850394  0.71231642  0.21231642  1
  Pr  Pr1  1  0.46149606  0.28768358  0.78768358  1
  Ag  Ag2  1  0.16495344  0.29120697  0.37815200  1
  Ag  Ag3  1  0.83504556  0.70879303  0.62184800  1
  Ag  Ag4  1  0.83504656  0.12184800  0.20879203  1
  Ag  Ag5  1  0.16495344  0.87815300  0.79120697  1
