# generated using pymatgen
data_La3In4Ge
_symmetry_space_group_name_H-M   'P 1'
_cell_length_a   8.63850133
_cell_length_b   8.63850133
_cell_length_c   8.63850720
_cell_angle_alpha   119.70488721
_cell_angle_beta   119.70488721
_cell_angle_gamma   90.51192638
_symmetry_Int_Tables_number   1
_chemical_formula_structural   La3In4Ge
_chemical_formula_sum   'La6 In8 Ge2'
_cell_volume   457.84092931
_cell_formula_units_Z   2
loop_
 _symmetry_equiv_pos_site_id
 _symmetry_equiv_pos_as_xyz
  1  'x, y, z'
loop_
 _atom_site_type_symbol
 _atom_site_label
 _atom_site_symmetry_multiplicity
 _atom_site_fract_x
 _atom_site_fract_y
 _atom_site_fract_z
 _atom_site_occupancy
  La  La0  1  0.75000000  0.75000000  -0.00000000  1
  La  La1  1  0.25000000  0.25000000  -0.00000000  1
  La  La2  1  0.33424222  0.83424222  0.16848344  1
  La  La3  1  0.66575778  0.16575778  0.83151656  1
  La  La4  1  0.83424222  0.66575778  0.50000000  1
  La  La5  1  0.16575778  0.33424222  0.50000000  1
  In  In6  1  0.95747762  0.45747762  0.78494631  1
  In  In7  1  0.67253130  0.17253130  0.21505369  1
  In  In8  1  0.45747762  0.67253130  0.50000000  1
  In  In9  1  0.17253130  0.95747762  0.50000000  1
  In  In10  1  0.04252238  0.54252238  0.21505369  1
  In  In11  1  0.32746870  0.82746870  0.78494631  1
  In  In12  1  0.54252238  0.32746870  0.50000000  1
  In  In13  1  0.82746870  0.04252238  0.50000000  1
  Ge  Ge14  1  -0.00000000  -0.00000000  -0.00000000  1
  Ge  Ge15  1  0.50000000  0.50000000  -0.00000000  1
