# generated using pymatgen
data_DySnGe
_symmetry_space_group_name_H-M   'P 1'
_cell_length_a   8.60895866
_cell_length_b   8.60895866
_cell_length_c   4.02745338
_cell_angle_alpha   90.00000000
_cell_angle_beta   90.00000000
_cell_angle_gamma   151.61467237
_symmetry_Int_Tables_number   1
_chemical_formula_structural   DySnGe
_chemical_formula_sum   'Dy2 Sn2 Ge2'
_cell_volume   141.90247426
_cell_formula_units_Z   2
loop_
 _symmetry_equiv_pos_site_id
 _symmetry_equiv_pos_as_xyz
  1  'x, y, z'
loop_
 _atom_site_type_symbol
 _atom_site_label
 _atom_site_symmetry_multiplicity
 _atom_site_fract_x
 _atom_site_fract_y
 _atom_site_fract_z
 _atom_site_occupancy
  Dy  Dy0  1  0.90458734  0.09541266  0.75000000  1
  Dy  Dy1  1  0.09541266  0.90458734  0.25000000  1
  Sn  Sn2  1  0.25835509  0.74164491  0.75000000  1
  Sn  Sn3  1  0.74164491  0.25835509  0.25000000  1
  Ge  Ge4  1  0.55007695  0.44992305  0.75000000  1
  Ge  Ge5  1  0.44992305  0.55007695  0.25000000  1
