# generated using pymatgen
data_U3P2Se
_symmetry_space_group_name_H-M   'P 1'
_cell_length_a   7.20232767
_cell_length_b   7.20232767
_cell_length_c   7.20232767
_cell_angle_alpha   147.80932855
_cell_angle_beta   132.71581713
_cell_angle_gamma   58.35582440
_symmetry_Int_Tables_number   1
_chemical_formula_structural   U3P2Se
_chemical_formula_sum   'U3 P2 Se1'
_cell_volume   145.06620749
_cell_formula_units_Z   1
loop_
 _symmetry_equiv_pos_site_id
 _symmetry_equiv_pos_as_xyz
  1  'x, y, z'
loop_
 _atom_site_type_symbol
 _atom_site_label
 _atom_site_symmetry_multiplicity
 _atom_site_fract_x
 _atom_site_fract_y
 _atom_site_fract_z
 _atom_site_occupancy
  U  U0  1  0.50000000  -0.00000000  0.50000000  1
  U  U1  1  0.17589707  0.67589707  0.50000000  1
  U  U2  1  0.82410293  0.32410293  0.50000000  1
  P  P3  1  0.66389736  0.66389736  0.00000000  1
  P  P4  1  0.33610264  0.33610264  -0.00000000  1
  Se  Se5  1  -0.00000000  -0.00000000  -0.00000000  1
