# generated using pymatgen
data_Ti7Al2O15
_symmetry_space_group_name_H-M   'P 1'
_cell_length_a   9.15666377
_cell_length_b   9.15666377
_cell_length_c   9.45360718
_cell_angle_alpha   81.56659670
_cell_angle_beta   81.56659670
_cell_angle_gamma   18.67784808
_symmetry_Int_Tables_number   1
_chemical_formula_structural   Ti7Al2O15
_chemical_formula_sum   'Ti7 Al2 O15'
_cell_volume   251.01870696
_cell_formula_units_Z   1
loop_
 _symmetry_equiv_pos_site_id
 _symmetry_equiv_pos_as_xyz
  1  'x, y, z'
loop_
 _atom_site_type_symbol
 _atom_site_label
 _atom_site_symmetry_multiplicity
 _atom_site_fract_x
 _atom_site_fract_y
 _atom_site_fract_z
 _atom_site_occupancy
  Ti  Ti0  1  0.50933275  0.50933275  0.64901420  1
  Ti  Ti1  1  0.49066725  0.49066725  0.35098580  1
  Ti  Ti2  1  0.18878081  0.18878081  0.61541018  1
  Ti  Ti3  1  0.81121919  0.81121919  0.38458982  1
  Ti  Ti4  1  0.67796332  0.67796332  0.95349114  1
  Ti  Ti5  1  0.32203668  0.32203668  0.04650886  1
  Ti  Ti6  1  -0.00000000  -0.00000000  -0.00000000  1
  Al  Al7  1  0.15795606  0.15795606  0.27718055  1
  Al  Al8  1  0.84204394  0.84204394  0.72281945  1
  O  O9  1  0.77380517  0.77380517  0.60281483  1
  O  O10  1  0.22619483  0.22619483  0.39718517  1
  O  O11  1  0.39266220  0.39266220  0.69513030  1
  O  O12  1  0.60733780  0.60733780  0.30486970  1
  O  O13  1  0.79991086  0.79991086  0.90704111  1
  O  O14  1  0.20008914  0.20008914  0.09295889  1
  O  O15  1  0.57438548  0.57438548  0.99236541  1
  O  O16  1  0.99171156  0.99171156  0.21289742  1
  O  O17  1  0.00828844  0.00828844  0.78710258  1
  O  O18  1  0.81258630  0.81258630  0.18551367  1
  O  O19  1  0.18741370  0.18741370  0.81448633  1
  O  O20  1  0.38155100  0.38155100  0.39418978  1
  O  O21  1  0.61844900  0.61844900  0.60581022  1
  O  O22  1  -0.00000000  -0.00000000  0.50000000  1
  O  O23  1  0.42561452  0.42561452  0.00763459  1
