# generated using pymatgen
data_GdAsS
_symmetry_space_group_name_H-M   'P 1'
_cell_length_a   3.84520962
_cell_length_b   3.89143483
_cell_length_c   17.12879161
_cell_angle_alpha   90.00000000
_cell_angle_beta   90.00000000
_cell_angle_gamma   90.00000000
_symmetry_Int_Tables_number   1
_chemical_formula_structural   GdAsS
_chemical_formula_sum   'Gd4 As4 S4'
_cell_volume   256.30466309
_cell_formula_units_Z   4
loop_
 _symmetry_equiv_pos_site_id
 _symmetry_equiv_pos_as_xyz
  1  'x, y, z'
loop_
 _atom_site_type_symbol
 _atom_site_label
 _atom_site_symmetry_multiplicity
 _atom_site_fract_x
 _atom_site_fract_y
 _atom_site_fract_z
 _atom_site_occupancy
  Gd  Gd0  1  0.25000000  0.23638605  0.85404465  1
  Gd  Gd1  1  0.25000000  0.26361395  0.35404465  1
  Gd  Gd2  1  0.75000000  0.76361395  0.14595535  1
  Gd  Gd3  1  0.75000000  0.73638605  0.64595535  1
  As  As4  1  0.75000000  0.21258826  0.50136901  1
  As  As5  1  0.75000000  0.28741174  0.00136901  1
  As  As6  1  0.25000000  0.78741174  0.49863099  1
  As  As7  1  0.25000000  0.71258826  0.99863099  1
  S  S8  1  0.25000000  0.23906010  0.68667749  1
  S  S9  1  0.25000000  0.26093990  0.18667749  1
  S  S10  1  0.75000000  0.76093990  0.31332251  1
  S  S11  1  0.75000000  0.73906010  0.81332251  1
