# generated using pymatgen
data_Zr(Fe2Si)2
_symmetry_space_group_name_H-M   'P 1'
_cell_length_a   7.02289417
_cell_length_b   7.02289417
_cell_length_c   3.78639415
_cell_angle_alpha   90.00000000
_cell_angle_beta   90.00000000
_cell_angle_gamma   90.00000000
_symmetry_Int_Tables_number   1
_chemical_formula_structural   Zr(Fe2Si)2
_chemical_formula_sum   'Zr2 Fe8 Si4'
_cell_volume   186.74890688
_cell_formula_units_Z   2
loop_
 _symmetry_equiv_pos_site_id
 _symmetry_equiv_pos_as_xyz
  1  'x, y, z'
loop_
 _atom_site_type_symbol
 _atom_site_label
 _atom_site_symmetry_multiplicity
 _atom_site_fract_x
 _atom_site_fract_y
 _atom_site_fract_z
 _atom_site_occupancy
  Zr  Zr0  1  0.50000000  0.50000000  -0.00000000  1
  Zr  Zr1  1  -0.00000000  -0.00000000  0.50000000  1
  Fe  Fe2  1  0.59619438  0.14833679  0.50000000  1
  Fe  Fe3  1  0.40380562  0.85166321  0.50000000  1
  Fe  Fe4  1  0.14833679  0.59619438  0.50000000  1
  Fe  Fe5  1  0.85166321  0.40380562  0.50000000  1
  Fe  Fe6  1  0.09619438  0.35166321  0.00000000  1
  Fe  Fe7  1  0.90380562  0.64833679  -0.00000000  1
  Fe  Fe8  1  0.64833679  0.90380562  0.00000000  1
  Fe  Fe9  1  0.35166321  0.09619438  -0.00000000  1
  Si  Si10  1  0.21260412  0.78739588  -0.00000000  1
  Si  Si11  1  0.28739588  0.28739588  0.50000000  1
  Si  Si12  1  0.71260412  0.71260412  0.50000000  1
  Si  Si13  1  0.78739588  0.21260412  -0.00000000  1
