# generated using pymatgen
data_Sr2Zn3Cd
_symmetry_space_group_name_H-M   'P 1'
_cell_length_a   6.05375625
_cell_length_b   6.05375625
_cell_length_c   7.84576429
_cell_angle_alpha   49.57286362
_cell_angle_beta   49.57286362
_cell_angle_gamma   47.16662287
_symmetry_Int_Tables_number   1
_chemical_formula_structural   Sr2Zn3Cd
_chemical_formula_sum   'Sr2 Zn3 Cd1'
_cell_volume   148.99862253
_cell_formula_units_Z   1
loop_
 _symmetry_equiv_pos_site_id
 _symmetry_equiv_pos_as_xyz
  1  'x, y, z'
loop_
 _atom_site_type_symbol
 _atom_site_label
 _atom_site_symmetry_multiplicity
 _atom_site_fract_x
 _atom_site_fract_y
 _atom_site_fract_z
 _atom_site_occupancy
  Sr  Sr0  1  0.44673810  0.44673810  0.80148088  1
  Sr  Sr1  1  0.55193599  0.55193599  0.19784941  1
  Zn  Zn2  1  0.17451522  0.17451522  0.40048118  1
  Zn  Zn3  1  0.15183084  0.15183084  0.78171909  1
  Zn  Zn4  1  0.83723022  0.83723022  0.22223486  1
  Cd  Cd5  1  0.83774964  0.83774964  0.59623358  1
