# generated using pymatgen
data_HoWC2
_symmetry_space_group_name_H-M   'P 1'
_cell_length_a   3.36032912
_cell_length_b   5.69943105
_cell_length_c   10.74968824
_cell_angle_alpha   89.99997887
_cell_angle_beta   90.00000000
_cell_angle_gamma   90.00000000
_symmetry_Int_Tables_number   1
_chemical_formula_structural   HoWC2
_chemical_formula_sum   'Ho4 W4 C8'
_cell_volume   205.87764352
_cell_formula_units_Z   4
loop_
 _symmetry_equiv_pos_site_id
 _symmetry_equiv_pos_as_xyz
  1  'x, y, z'
loop_
 _atom_site_type_symbol
 _atom_site_label
 _atom_site_symmetry_multiplicity
 _atom_site_fract_x
 _atom_site_fract_y
 _atom_site_fract_z
 _atom_site_occupancy
  Ho  Ho0  1  0.25000000  0.58556026  0.36246328  1
  Ho  Ho1  1  0.25000000  0.08556026  0.13753672  1
  Ho  Ho2  1  0.75000000  0.41443974  0.63753672  1
  Ho  Ho3  1  0.75000000  0.91443974  0.86246328  1
  W  W4  1  0.25000000  0.90263261  0.61079443  1
  W  W5  1  0.25000000  0.40263261  0.88920557  1
  W  W6  1  0.75000000  0.09736639  0.38920557  1
  W  W7  1  0.75000000  0.59736739  0.11079443  1
  C  C8  1  0.25000000  0.65923943  0.74698587  1
  C  C9  1  0.25000000  0.15923943  0.75301413  1
  C  C10  1  0.75000000  0.34076057  0.25301413  1
  C  C11  1  0.75000000  0.84076057  0.24698587  1
  C  C12  1  0.25000000  0.22410758  0.48381420  1
  C  C13  1  0.25000000  0.72410758  0.01618580  1
  C  C14  1  0.75000000  0.77589242  0.51618580  1
  C  C15  1  0.75000000  0.27589242  0.98381420  1
