# generated using pymatgen
data_HoUTe4
_symmetry_space_group_name_H-M   'P 1'
_cell_length_a   8.06184266
_cell_length_b   8.06060036
_cell_length_c   8.06029126
_cell_angle_alpha   149.42593279
_cell_angle_beta   135.47608665
_cell_angle_gamma   54.97344284
_symmetry_Int_Tables_number   1
_chemical_formula_structural   HoUTe4
_chemical_formula_sum   'Ho1 U1 Te4'
_cell_volume   185.64668061
_cell_formula_units_Z   1
loop_
 _symmetry_equiv_pos_site_id
 _symmetry_equiv_pos_as_xyz
  1  'x, y, z'
loop_
 _atom_site_type_symbol
 _atom_site_label
 _atom_site_symmetry_multiplicity
 _atom_site_fract_x
 _atom_site_fract_y
 _atom_site_fract_z
 _atom_site_occupancy
  Ho  Ho0  1  0.14106914  0.14110027  0.00007898  1
  U  U1  1  0.86334856  0.86340185  -0.00006304  1
  Te  Te2  1  0.70617236  0.20610195  0.49999618  1
  Te  Te3  1  0.29159598  0.79159458  0.50002215  1
  Te  Te4  1  0.75025736  0.49887864  0.25135764  1
  Te  Te5  1  0.24755760  0.49892172  0.74860809  1
