# generated using pymatgen
data_Nd2Ni2Sn
_symmetry_space_group_name_H-M   'P 1'
_cell_length_a   5.58905534
_cell_length_b   5.58905534
_cell_length_c   5.58905534
_cell_angle_alpha   134.18153451
_cell_angle_beta   118.56573154
_cell_angle_gamma   79.91548341
_symmetry_Int_Tables_number   1
_chemical_formula_structural   Nd2Ni2Sn
_chemical_formula_sum   'Nd2 Ni2 Sn1'
_cell_volume   106.43936469
_cell_formula_units_Z   1
loop_
 _symmetry_equiv_pos_site_id
 _symmetry_equiv_pos_as_xyz
  1  'x, y, z'
loop_
 _atom_site_type_symbol
 _atom_site_label
 _atom_site_symmetry_multiplicity
 _atom_site_fract_x
 _atom_site_fract_y
 _atom_site_fract_z
 _atom_site_occupancy
  Nd  Nd0  1  0.29726589  0.79726589  0.50000000  1
  Nd  Nd1  1  0.70273411  0.20273411  0.50000000  1
  Ni  Ni2  1  0.71061733  0.50000000  0.21061733  1
  Ni  Ni3  1  0.28938267  0.50000000  0.78938267  1
  Sn  Sn4  1  -0.00000000  -0.00000000  -0.00000000  1
