# generated using pymatgen
data_HoMnO3
_symmetry_space_group_name_H-M   'P 1'
_cell_length_a   6.10733139
_cell_length_b   6.10733168
_cell_length_c   11.40796997
_cell_angle_alpha   90.00001482
_cell_angle_beta   90.00000886
_cell_angle_gamma   119.99970365
_symmetry_Int_Tables_number   1
_chemical_formula_structural   HoMnO3
_chemical_formula_sum   'Ho6 Mn6 O18'
_cell_volume   368.50491952
_cell_formula_units_Z   6
loop_
 _symmetry_equiv_pos_site_id
 _symmetry_equiv_pos_as_xyz
  1  'x, y, z'
loop_
 _atom_site_type_symbol
 _atom_site_label
 _atom_site_symmetry_multiplicity
 _atom_site_fract_x
 _atom_site_fract_y
 _atom_site_fract_z
 _atom_site_occupancy
  Ho  Ho0  1  0.66666648  0.33333333  0.23005307  1
  Ho  Ho1  1  0.33333303  0.66666639  0.73005323  1
  Ho  Ho2  1  0.66666661  0.33333330  0.73005331  1
  Ho  Ho3  1  0.33333330  0.66666651  0.23005317  1
  Ho  Ho4  1  -0.00000014  -0.00000015  0.77508179  1
  Ho  Ho5  1  0.00000014  0.00000011  0.27508188  1
  Mn  Mn6  1  0.66643331  -0.00000360  0.49930423  1
  Mn  Mn7  1  0.66643758  0.66643754  0.99930465  1
  Mn  Mn8  1  0.00000381  0.33356668  0.99930452  1
  Mn  Mn9  1  -0.00000372  0.66643333  0.49930424  1
  Mn  Mn10  1  0.33356231  0.33356226  0.49930431  1
  Mn  Mn11  1  0.33356683  0.00000378  0.99930457  1
  O  O12  1  0.66666700  0.33333348  0.01862536  1
  O  O13  1  0.33333289  0.66666644  0.51862416  1
  O  O14  1  0.66666640  0.33333278  0.51862418  1
  O  O15  1  0.33333343  0.66666701  0.01862537  1
  O  O16  1  -0.00000005  -0.00000001  0.97619477  1
  O  O17  1  0.00000011  0.00000009  0.47619493  1
  O  O18  1  0.36003942  0.00000036  0.83575783  1
  O  O19  1  0.36004126  0.36004137  0.33575811  1
  O  O20  1  -0.00000027  0.63995988  0.33575636  1
  O  O21  1  0.00000027  0.36003948  0.83575779  1
  O  O22  1  0.63996080  0.63996073  0.83575797  1
  O  O23  1  0.63995984  -0.00000039  0.33575638  1
  O  O24  1  0.30605209  0.00000074  0.16306169  1
  O  O25  1  0.30605251  0.30605265  0.66306091  1
  O  O26  1  -0.00000049  0.69394678  0.66306082  1
  O  O27  1  0.00000068  0.30605202  0.16306169  1
  O  O28  1  0.69394875  0.69394871  0.16306195  1
  O  O29  1  0.69394682  -0.00000059  0.66306076  1
