# generated using pymatgen
data_Ca(Al4Co)2
_symmetry_space_group_name_H-M   'P 1'
_cell_length_a   3.93297335
_cell_length_b   12.37181863
_cell_length_c   14.35666571
_cell_angle_alpha   90.00000000
_cell_angle_beta   90.00000000
_cell_angle_gamma   90.00000000
_symmetry_Int_Tables_number   1
_chemical_formula_structural   Ca(Al4Co)2
_chemical_formula_sum   'Ca4 Al32 Co8'
_cell_volume   698.56711335
_cell_formula_units_Z   4
loop_
 _symmetry_equiv_pos_site_id
 _symmetry_equiv_pos_as_xyz
  1  'x, y, z'
loop_
 _atom_site_type_symbol
 _atom_site_label
 _atom_site_symmetry_multiplicity
 _atom_site_fract_x
 _atom_site_fract_y
 _atom_site_fract_z
 _atom_site_occupancy
  Ca  Ca0  1  0.50000000  0.15887088  0.68106943  1
  Ca  Ca1  1  0.50000000  0.84112912  0.31893057  1
  Ca  Ca2  1  0.50000000  0.65887088  0.81893057  1
  Ca  Ca3  1  0.50000000  0.34112912  0.18106943  1
  Al  Al4  1  0.00000000  0.73551848  0.17313766  1
  Al  Al5  1  0.50000000  0.40401491  0.74537268  1
  Al  Al6  1  0.50000000  0.16101041  0.95491425  1
  Al  Al7  1  0.00000000  0.52636496  0.13306801  1
  Al  Al8  1  0.50000000  0.50000000  0.00000000  1
  Al  Al9  1  0.50000000  0.09598509  0.24537268  1
  Al  Al10  1  0.00000000  0.45285654  0.32079381  1
  Al  Al11  1  0.50000000  0.33898959  0.45491425  1
  Al  Al12  1  0.50000000  0.90401491  0.75462732  1
  Al  Al13  1  0.00000000  0.02636496  0.36693199  1
  Al  Al14  1  0.00000000  0.16806904  0.50669962  1
  Al  Al15  1  0.00000000  0.15995753  0.11883474  1
  Al  Al16  1  0.00000000  0.23551848  0.32686234  1
  Al  Al17  1  0.00000000  0.83193096  0.49330038  1
  Al  Al18  1  0.50000000  0.83898959  0.04508575  1
  Al  Al19  1  0.00000000  0.97363504  0.63306801  1
  Al  Al20  1  0.00000000  0.76448152  0.67313766  1
  Al  Al21  1  0.00000000  0.47363504  0.86693199  1
  Al  Al22  1  0.00000000  0.65995753  0.38116526  1
  Al  Al23  1  0.00000000  0.50000000  0.50000000  1
  Al  Al24  1  0.00000000  0.84004247  0.88116526  1
  Al  Al25  1  0.00000000  0.26448152  0.82686234  1
  Al  Al26  1  0.00000000  0.95285654  0.17920619  1
  Al  Al27  1  0.00000000  0.34004247  0.61883474  1
  Al  Al28  1  0.50000000  0.59598509  0.25462732  1
  Al  Al29  1  0.00000000  0.66806904  0.99330038  1
  Al  Al30  1  0.00000000  0.33193096  0.00669962  1
  Al  Al31  1  0.50000000  0.66101041  0.54508575  1
  Al  Al32  1  0.00000000  0.00000000  0.00000000  1
  Al  Al33  1  0.00000000  0.54714346  0.67920619  1
  Al  Al34  1  0.00000000  0.04714346  0.82079381  1
  Al  Al35  1  0.50000000  0.00000000  0.50000000  1
  Co  Co36  1  0.50000000  0.85051734  0.59845133  1
  Co  Co37  1  0.50000000  0.03447050  0.09274529  1
  Co  Co38  1  0.50000000  0.14948266  0.40154867  1
  Co  Co39  1  0.50000000  0.96552950  0.90725471  1
  Co  Co40  1  0.50000000  0.53447050  0.40725471  1
  Co  Co41  1  0.50000000  0.46552950  0.59274529  1
  Co  Co42  1  0.50000000  0.64948266  0.09845133  1
  Co  Co43  1  0.50000000  0.35051734  0.90154867  1
