# generated using pymatgen
data_AlReGe
_symmetry_space_group_name_H-M   'P 1'
_cell_length_a   4.66321766
_cell_length_b   4.66321766
_cell_length_c   4.66321766
_cell_angle_alpha   139.32415175
_cell_angle_beta   139.32415175
_cell_angle_gamma   58.88093018
_symmetry_Int_Tables_number   1
_chemical_formula_structural   AlReGe
_chemical_formula_sum   'Al1 Re1 Ge1'
_cell_volume   42.66967420
_cell_formula_units_Z   1
loop_
 _symmetry_equiv_pos_site_id
 _symmetry_equiv_pos_as_xyz
  1  'x, y, z'
loop_
 _atom_site_type_symbol
 _atom_site_label
 _atom_site_symmetry_multiplicity
 _atom_site_fract_x
 _atom_site_fract_y
 _atom_site_fract_z
 _atom_site_occupancy
  Al  Al0  1  0.66477194  0.66477194  -0.00000000  1
  Re  Re1  1  0.99703551  0.99703551  -0.00000000  1
  Ge  Ge2  1  0.33819255  0.33819255  0.00000000  1
