# generated using pymatgen
data_Tb6CoBr10
_symmetry_space_group_name_H-M   'P 1'
_cell_length_a   7.29978915
_cell_length_b   8.97704623
_cell_length_c   9.15927868
_cell_angle_alpha   108.23908820
_cell_angle_beta   97.19485767
_cell_angle_gamma   105.38306133
_symmetry_Int_Tables_number   1
_chemical_formula_structural   Tb6CoBr10
_chemical_formula_sum   'Tb6 Co1 Br10'
_cell_volume   535.23005410
_cell_formula_units_Z   1
loop_
 _symmetry_equiv_pos_site_id
 _symmetry_equiv_pos_as_xyz
  1  'x, y, z'
loop_
 _atom_site_type_symbol
 _atom_site_label
 _atom_site_symmetry_multiplicity
 _atom_site_fract_x
 _atom_site_fract_y
 _atom_site_fract_z
 _atom_site_occupancy
  Tb  Tb0  1  0.03049192  0.71452771  0.41259218  1
  Tb  Tb1  1  0.96950808  0.28547229  0.58740782  1
  Tb  Tb2  1  0.87651801  0.95336197  0.74643377  1
  Tb  Tb3  1  0.12348199  0.04663803  0.25356623  1
  Tb  Tb4  1  0.36049658  0.13561453  0.67896495  1
  Tb  Tb5  1  0.63950342  0.86438547  0.32103505  1
  Co  Co6  1  -0.00000000  -0.00000000  0.50000000  1
  Br  Br7  1  0.45087293  0.81658731  0.58523727  1
  Br  Br8  1  0.54912707  0.18341269  0.41476273  1
  Br  Br9  1  0.91317770  0.62727800  0.67536798  1
  Br  Br10  1  0.08682230  0.37272200  0.32463202  1
  Br  Br11  1  0.25738367  0.08673658  0.96093469  1
  Br  Br12  1  0.74261633  0.91326342  0.03906531  1
  Br  Br13  1  0.35356076  0.46005134  0.77428472  1
  Br  Br14  1  0.64643924  0.53994866  0.22571528  1
  Br  Br15  1  0.78982886  0.26095957  0.85090239  1
  Br  Br16  1  0.21017114  0.73904043  0.14909761  1
