# generated using pymatgen
data_Cu(RhS2)2
_symmetry_space_group_name_H-M   'P 1'
_cell_length_a   6.92968651
_cell_length_b   6.92968618
_cell_length_c   6.92968699
_cell_angle_alpha   60.00000094
_cell_angle_beta   60.00000253
_cell_angle_gamma   59.99999164
_symmetry_Int_Tables_number   1
_chemical_formula_structural   Cu(RhS2)2
_chemical_formula_sum   'Cu2 Rh4 S8'
_cell_volume   235.30207644
_cell_formula_units_Z   2
loop_
 _symmetry_equiv_pos_site_id
 _symmetry_equiv_pos_as_xyz
  1  'x, y, z'
loop_
 _atom_site_type_symbol
 _atom_site_label
 _atom_site_symmetry_multiplicity
 _atom_site_fract_x
 _atom_site_fract_y
 _atom_site_fract_z
 _atom_site_occupancy
  Cu  Cu0  1  0.87500000  0.87500000  0.87500000  1
  Cu  Cu1  1  0.12500000  0.12500000  0.12500000  1
  Rh  Rh2  1  0.50000000  0.50000000  0.00000000  1
  Rh  Rh3  1  0.50000000  0.50000000  0.50000000  1
  Rh  Rh4  1  0.00000000  0.50000000  0.50000000  1
  Rh  Rh5  1  0.50000000  -0.00000000  0.50000000  1
  S  S6  1  0.74120023  0.74120023  0.74120023  1
  S  S7  1  0.25879977  0.25879977  0.72360070  1
  S  S8  1  0.25879977  0.72360070  0.25879977  1
  S  S9  1  0.72360070  0.25879977  0.25879977  1
  S  S10  1  0.74120023  0.27639930  0.74120023  1
  S  S11  1  0.27639930  0.74120023  0.74120023  1
  S  S12  1  0.25879977  0.25879977  0.25879977  1
  S  S13  1  0.74120023  0.74120023  0.27639930  1
