# generated using pymatgen
data_GdSnPt
_symmetry_space_group_name_H-M   'P 1'
_cell_length_a   7.51001434
_cell_length_b   7.51001434
_cell_length_c   4.06152736
_cell_angle_alpha   90.00000000
_cell_angle_beta   90.00000000
_cell_angle_gamma   120.00000436
_symmetry_Int_Tables_number   1
_chemical_formula_structural   GdSnPt
_chemical_formula_sum   'Gd3 Sn3 Pt3'
_cell_volume   198.38166354
_cell_formula_units_Z   3
loop_
 _symmetry_equiv_pos_site_id
 _symmetry_equiv_pos_as_xyz
  1  'x, y, z'
loop_
 _atom_site_type_symbol
 _atom_site_label
 _atom_site_symmetry_multiplicity
 _atom_site_fract_x
 _atom_site_fract_y
 _atom_site_fract_z
 _atom_site_occupancy
  Gd  Gd0  1  0.40781762  0.40781762  0.50000000  1
  Gd  Gd1  1  0.59218338  -0.00000000  0.50000000  1
  Gd  Gd2  1  -0.00000000  0.59218338  0.50000000  1
  Sn  Sn3  1  0.74350035  0.74350035  0.00000000  1
  Sn  Sn4  1  0.25649865  0.00000000  0.00000000  1
  Sn  Sn5  1  0.00000000  0.25649865  -0.00000000  1
  Pt  Pt6  1  0.66666700  0.33333300  -0.00000000  1
  Pt  Pt7  1  0.33333300  0.66666700  0.00000000  1
  Pt  Pt8  1  -0.00000000  -0.00000000  0.50000000  1
