# generated using pymatgen
data_NaSnAu
_symmetry_space_group_name_H-M   'P 1'
_cell_length_a   4.58362101
_cell_length_b   7.52925931
_cell_length_c   8.10219611
_cell_angle_alpha   90.00000000
_cell_angle_beta   90.00000000
_cell_angle_gamma   90.00000000
_symmetry_Int_Tables_number   1
_chemical_formula_structural   NaSnAu
_chemical_formula_sum   'Na4 Sn4 Au4'
_cell_volume   279.61708697
_cell_formula_units_Z   4
loop_
 _symmetry_equiv_pos_site_id
 _symmetry_equiv_pos_as_xyz
  1  'x, y, z'
loop_
 _atom_site_type_symbol
 _atom_site_label
 _atom_site_symmetry_multiplicity
 _atom_site_fract_x
 _atom_site_fract_y
 _atom_site_fract_z
 _atom_site_occupancy
  Na  Na0  1  0.50000000  0.01569681  0.17212810  1
  Na  Na1  1  0.50000000  0.51569681  0.32787190  1
  Na  Na2  1  0.00000000  0.48430319  0.67212810  1
  Na  Na3  1  0.00000000  0.98430319  0.82787190  1
  Sn  Sn4  1  0.50000000  0.66213731  0.93591739  1
  Sn  Sn5  1  0.50000000  0.16213631  0.56408261  1
  Sn  Sn6  1  0.00000000  0.83786269  0.43591739  1
  Sn  Sn7  1  0.00000000  0.33786269  0.06408261  1
  Au  Au8  1  -0.00000000  0.70593006  0.12320808  1
  Au  Au9  1  0.50000000  0.29406994  0.87679192  1
  Au  Au10  1  0.50000000  0.79406994  0.62320808  1
  Au  Au11  1  -0.00000000  0.20593006  0.37679192  1
