# generated using pymatgen
data_ErGePt
_symmetry_space_group_name_H-M   'P 1'
_cell_length_a   4.33429624
_cell_length_b   6.94421287
_cell_length_c   7.53393256
_cell_angle_alpha   90.00000000
_cell_angle_beta   90.00000000
_cell_angle_gamma   90.00000000
_symmetry_Int_Tables_number   1
_chemical_formula_structural   ErGePt
_chemical_formula_sum   'Er4 Ge4 Pt4'
_cell_volume   226.75837954
_cell_formula_units_Z   4
loop_
 _symmetry_equiv_pos_site_id
 _symmetry_equiv_pos_as_xyz
  1  'x, y, z'
loop_
 _atom_site_type_symbol
 _atom_site_label
 _atom_site_symmetry_multiplicity
 _atom_site_fract_x
 _atom_site_fract_y
 _atom_site_fract_z
 _atom_site_occupancy
  Er  Er0  1  0.75000000  0.49716153  0.20484718  1
  Er  Er1  1  0.25000000  0.00283847  0.70484718  1
  Er  Er2  1  0.75000000  0.99716153  0.29515282  1
  Er  Er3  1  0.25000000  0.50283847  0.79515282  1
  Ge  Ge4  1  0.25000000  0.69053795  0.41135804  1
  Ge  Ge5  1  0.25000000  0.19053795  0.08864196  1
  Ge  Ge6  1  0.75000000  0.30946205  0.58864196  1
  Ge  Ge7  1  0.75000000  0.80946205  0.91135804  1
  Pt  Pt8  1  0.25000000  0.79419958  0.08369121  1
  Pt  Pt9  1  0.25000000  0.29419958  0.41630879  1
  Pt  Pt10  1  0.75000000  0.70580042  0.58369121  1
  Pt  Pt11  1  0.75000000  0.20579942  0.91630879  1
