# generated using pymatgen
data_ThUSb4
_symmetry_space_group_name_H-M   'P 1'
_cell_length_a   4.37055572
_cell_length_b   4.37052839
_cell_length_c   9.07423061
_cell_angle_alpha   90.00000000
_cell_angle_beta   90.00000000
_cell_angle_gamma   90.00000000
_symmetry_Int_Tables_number   1
_chemical_formula_structural   ThUSb4
_chemical_formula_sum   'Th1 U1 Sb4'
_cell_volume   173.33266692
_cell_formula_units_Z   1
loop_
 _symmetry_equiv_pos_site_id
 _symmetry_equiv_pos_as_xyz
  1  'x, y, z'
loop_
 _atom_site_type_symbol
 _atom_site_label
 _atom_site_symmetry_multiplicity
 _atom_site_fract_x
 _atom_site_fract_y
 _atom_site_fract_z
 _atom_site_occupancy
  Th  Th0  1  0.50000000  0.50000000  0.72354527  1
  U  U1  1  -0.00000000  -0.00000000  0.27806756  1
  Sb  Sb2  1  0.50000000  0.00000000  0.00479830  1
  Sb  Sb3  1  -0.00000000  0.50000000  0.00479830  1
  Sb  Sb4  1  0.50000000  0.50000000  0.35738399  1
  Sb  Sb5  1  0.00000000  -0.00000000  0.63140557  1
