# generated using pymatgen
data_FeAsSe
_symmetry_space_group_name_H-M   'P 1'
_cell_length_a   5.83567310
_cell_length_b   5.89326376
_cell_length_c   5.93463679
_cell_angle_alpha   112.86702199
_cell_angle_beta   90.00000000
_cell_angle_gamma   90.00000000
_symmetry_Int_Tables_number   1
_chemical_formula_structural   FeAsSe
_chemical_formula_sum   'Fe4 As4 Se4'
_cell_volume   188.05874552
_cell_formula_units_Z   4
loop_
 _symmetry_equiv_pos_site_id
 _symmetry_equiv_pos_as_xyz
  1  'x, y, z'
loop_
 _atom_site_type_symbol
 _atom_site_label
 _atom_site_symmetry_multiplicity
 _atom_site_fract_x
 _atom_site_fract_y
 _atom_site_fract_z
 _atom_site_occupancy
  Fe  Fe0  1  0.50037673  0.72438326  0.20887573  1
  Fe  Fe1  1  0.00037673  0.27561674  0.29112427  1
  Fe  Fe2  1  0.49962327  0.27561674  0.79112427  1
  Fe  Fe3  1  -0.00037673  0.72438326  0.70887573  1
  As  As4  1  0.13667252  0.85731711  0.12242000  1
  As  As5  1  0.63667252  0.14268289  0.37758000  1
  As  As6  1  0.86332748  0.14268289  0.87758000  1
  As  As7  1  0.36332748  0.85731711  0.62242000  1
  Se  Se8  1  0.86895023  0.65559978  0.32149797  1
  Se  Se9  1  0.36895023  0.34440022  0.17850203  1
  Se  Se10  1  0.13104977  0.34440022  0.67850203  1
  Se  Se11  1  0.63104977  0.65559978  0.82149797  1
