# generated using pymatgen
data_Sn3Te2Se
_symmetry_space_group_name_H-M   'P 1'
_cell_length_a   4.42834856
_cell_length_b   4.42834856
_cell_length_c   10.79260030
_cell_angle_alpha   90.00000000
_cell_angle_beta   90.00000000
_cell_angle_gamma   120.00000591
_symmetry_Int_Tables_number   1
_chemical_formula_structural   Sn3Te2Se
_chemical_formula_sum   'Sn3 Te2 Se1'
_cell_volume   183.29064227
_cell_formula_units_Z   1
loop_
 _symmetry_equiv_pos_site_id
 _symmetry_equiv_pos_as_xyz
  1  'x, y, z'
loop_
 _atom_site_type_symbol
 _atom_site_label
 _atom_site_symmetry_multiplicity
 _atom_site_fract_x
 _atom_site_fract_y
 _atom_site_fract_z
 _atom_site_occupancy
  Sn  Sn0  1  0.00000000  -0.00000000  0.50000000  1
  Sn  Sn1  1  0.33333300  0.66666700  0.15174809  1
  Sn  Sn2  1  0.66666700  0.33333300  0.84825191  1
  Te  Te3  1  0.33333300  0.66666700  0.67419140  1
  Te  Te4  1  0.66666700  0.33333300  0.32580860  1
  Se  Se5  1  0.00000000  -0.00000000  -0.00000000  1
