# generated using pymatgen
data_Sc2Te3
_symmetry_space_group_name_H-M   'P 1'
_cell_length_a   7.20819075
_cell_length_b   7.20819135
_cell_length_c   13.10845535
_cell_angle_alpha   100.57070158
_cell_angle_beta   100.57070888
_cell_angle_gamma   109.43752996
_symmetry_Int_Tables_number   1
_chemical_formula_structural   Sc2Te3
_chemical_formula_sum   'Sc8 Te12'
_cell_volume   609.01462987
_cell_formula_units_Z   4
loop_
 _symmetry_equiv_pos_site_id
 _symmetry_equiv_pos_as_xyz
  1  'x, y, z'
loop_
 _atom_site_type_symbol
 _atom_site_label
 _atom_site_symmetry_multiplicity
 _atom_site_fract_x
 _atom_site_fract_y
 _atom_site_fract_z
 _atom_site_occupancy
  Sc  Sc0  1  0.20722529  0.95722529  0.91444959  1
  Sc  Sc1  1  0.04277471  0.79277471  0.58555041  1
  Sc  Sc2  1  0.79277471  0.04277471  0.08555041  1
  Sc  Sc3  1  0.95722529  0.20722529  0.41444959  1
  Sc  Sc4  1  0.87532634  0.62532634  0.25065168  1
  Sc  Sc5  1  0.37467366  0.12467366  0.24934832  1
  Sc  Sc6  1  0.12467366  0.37467366  0.74934832  1
  Sc  Sc7  1  0.62532634  0.87532634  0.75065168  1
  Te  Te8  1  0.37603327  0.12603327  0.75000000  1
  Te  Te9  1  0.87396673  0.62396673  0.75000000  1
  Te  Te10  1  0.62396673  0.87396673  0.25000000  1
  Te  Te11  1  0.12603327  0.37603327  0.25000000  1
  Te  Te12  1  0.04249878  0.79541319  0.08471600  1
  Te  Te13  1  0.71069619  0.45778278  0.41528400  1
  Te  Te14  1  0.20458681  0.95750122  0.41528400  1
  Te  Te15  1  0.54221722  0.28930381  0.08471600  1
  Te  Te16  1  0.95750122  0.20458681  0.91528400  1
  Te  Te17  1  0.28930381  0.54221722  0.58471600  1
  Te  Te18  1  0.79541319  0.04249878  0.58471600  1
  Te  Te19  1  0.45778278  0.71069619  0.91528400  1
