# generated using pymatgen
data_RbLaF4
_symmetry_space_group_name_H-M   'P 1'
_cell_length_a   3.85154975
_cell_length_b   6.45507525
_cell_length_c   16.11646092
_cell_angle_alpha   90.00000000
_cell_angle_beta   90.00000000
_cell_angle_gamma   90.00000000
_symmetry_Int_Tables_number   1
_chemical_formula_structural   RbLaF4
_chemical_formula_sum   'Rb4 La4 F16'
_cell_volume   400.68815190
_cell_formula_units_Z   4
loop_
 _symmetry_equiv_pos_site_id
 _symmetry_equiv_pos_as_xyz
  1  'x, y, z'
loop_
 _atom_site_type_symbol
 _atom_site_label
 _atom_site_symmetry_multiplicity
 _atom_site_fract_x
 _atom_site_fract_y
 _atom_site_fract_z
 _atom_site_occupancy
  Rb  Rb0  1  0.75000000  0.27578650  0.79902996  1
  Rb  Rb1  1  0.75000000  0.77578650  0.70097004  1
  Rb  Rb2  1  0.25000000  0.72421350  0.20097004  1
  Rb  Rb3  1  0.25000000  0.22421350  0.29902996  1
  La  La4  1  0.25000000  0.25177410  0.55865492  1
  La  La5  1  0.25000000  0.75177410  0.94134508  1
  La  La6  1  0.75000000  0.74822590  0.44134508  1
  La  La7  1  0.75000000  0.24822590  0.05865492  1
  F  F8  1  0.25000000  0.13461648  0.96276664  1
  F  F9  1  0.25000000  0.63461648  0.53723336  1
  F  F10  1  0.75000000  0.86538352  0.03723336  1
  F  F11  1  0.75000000  0.36538352  0.46276664  1
  F  F12  1  0.75000000  0.00015258  0.55623656  1
  F  F13  1  0.75000000  0.50015258  0.94376344  1
  F  F14  1  0.25000000  -0.00015258  0.44376344  1
  F  F15  1  0.25000000  0.49984742  0.05623656  1
  F  F16  1  0.75000000  0.39137400  0.63072926  1
  F  F17  1  0.75000000  0.89137400  0.86927074  1
  F  F18  1  0.25000000  0.60862600  0.36927074  1
  F  F19  1  0.25000000  0.10862600  0.13072926  1
  F  F20  1  0.25000000  0.09457037  0.68895866  1
  F  F21  1  0.25000000  0.59457037  0.81104134  1
  F  F22  1  0.75000000  0.90542963  0.31104134  1
  F  F23  1  0.75000000  0.40542963  0.18895866  1
