# generated using pymatgen
data_EuZnAu
_symmetry_space_group_name_H-M   'P 1'
_cell_length_a   4.63553618
_cell_length_b   7.34902247
_cell_length_c   7.85625512
_cell_angle_alpha   90.00004471
_cell_angle_beta   90.00000000
_cell_angle_gamma   90.00000000
_symmetry_Int_Tables_number   1
_chemical_formula_structural   EuZnAu
_chemical_formula_sum   'Eu4 Zn4 Au4'
_cell_volume   267.63636849
_cell_formula_units_Z   4
loop_
 _symmetry_equiv_pos_site_id
 _symmetry_equiv_pos_as_xyz
  1  'x, y, z'
loop_
 _atom_site_type_symbol
 _atom_site_label
 _atom_site_symmetry_multiplicity
 _atom_site_fract_x
 _atom_site_fract_y
 _atom_site_fract_z
 _atom_site_occupancy
  Eu  Eu0  1  0.25000000  0.00570946  0.30036714  1
  Eu  Eu1  1  0.25000000  0.50569515  0.19946534  1
  Eu  Eu2  1  0.75000000  0.99428515  0.69958553  1
  Eu  Eu3  1  0.75000000  0.49429277  0.80057991  1
  Zn  Zn4  1  0.25000000  0.67740398  0.57918570  1
  Zn  Zn5  1  0.25000000  0.17755877  0.92087092  1
  Zn  Zn6  1  0.75000000  0.32261819  0.42070360  1
  Zn  Zn7  1  0.75000000  0.82243240  0.07923706  1
  Au  Au8  1  0.25000000  0.29503014  0.59336849  1
  Au  Au9  1  0.25000000  0.79491547  0.90667495  1
  Au  Au10  1  0.75000000  0.70497305  0.40654678  1
  Au  Au11  1  0.75000000  0.20508447  0.09341457  1
