# generated using pymatgen
data_Ho2Pt
_symmetry_space_group_name_H-M   'P 1'
_cell_length_a   4.73520687
_cell_length_b   7.08068830
_cell_length_c   8.72287926
_cell_angle_alpha   90.00000000
_cell_angle_beta   90.00000000
_cell_angle_gamma   90.00000000
_symmetry_Int_Tables_number   1
_chemical_formula_structural   Ho2Pt
_chemical_formula_sum   'Ho8 Pt4'
_cell_volume   292.46526559
_cell_formula_units_Z   4
loop_
 _symmetry_equiv_pos_site_id
 _symmetry_equiv_pos_as_xyz
  1  'x, y, z'
loop_
 _atom_site_type_symbol
 _atom_site_label
 _atom_site_symmetry_multiplicity
 _atom_site_fract_x
 _atom_site_fract_y
 _atom_site_fract_z
 _atom_site_occupancy
  Ho  Ho0  1  0.75000000  0.64326560  0.58116185  1
  Ho  Ho1  1  0.75000000  0.14326560  0.91883715  1
  Ho  Ho2  1  0.25000000  0.35673440  0.41883715  1
  Ho  Ho3  1  0.25000000  0.85673440  0.08116185  1
  Ho  Ho4  1  0.75000000  0.50887534  0.16691269  1
  Ho  Ho5  1  0.75000000  0.00887434  0.33308831  1
  Ho  Ho6  1  0.25000000  0.49112566  0.83308831  1
  Ho  Ho7  1  0.25000000  0.99112466  0.66691269  1
  Pt  Pt8  1  0.75000000  0.24101092  0.59240370  1
  Pt  Pt9  1  0.75000000  0.74101092  0.90759630  1
  Pt  Pt10  1  0.25000000  0.75898908  0.40759630  1
  Pt  Pt11  1  0.25000000  0.25898908  0.09240370  1
