# generated using pymatgen
data_Sm3Ru
_symmetry_space_group_name_H-M   'P 1'
_cell_length_a   6.45971151
_cell_length_b   7.34157149
_cell_length_c   9.50505660
_cell_angle_alpha   89.99994566
_cell_angle_beta   89.99999755
_cell_angle_gamma   90.00002882
_symmetry_Int_Tables_number   1
_chemical_formula_structural   Sm3Ru
_chemical_formula_sum   'Sm12 Ru4'
_cell_volume   450.77192802
_cell_formula_units_Z   4
loop_
 _symmetry_equiv_pos_site_id
 _symmetry_equiv_pos_as_xyz
  1  'x, y, z'
loop_
 _atom_site_type_symbol
 _atom_site_label
 _atom_site_symmetry_multiplicity
 _atom_site_fract_x
 _atom_site_fract_y
 _atom_site_fract_z
 _atom_site_occupancy
  Sm  Sm0  1  0.32704153  0.67516473  0.06737639  1
  Sm  Sm1  1  0.17301005  0.17511761  0.43256745  1
  Sm  Sm2  1  0.67299194  0.32486891  0.56734244  1
  Sm  Sm3  1  0.82705599  0.82482228  0.93271474  1
  Sm  Sm4  1  0.67294421  0.32482242  0.93271486  1
  Sm  Sm5  1  0.82700832  0.82486884  0.56734260  1
  Sm  Sm6  1  0.32698977  0.67511801  0.43256722  1
  Sm  Sm7  1  0.17295806  0.17516432  0.06737612  1
  Sm  Sm8  1  0.86093746  0.54522665  0.25003568  1
  Sm  Sm9  1  0.63906238  0.04522650  0.25003564  1
  Sm  Sm10  1  0.13905920  0.45478648  0.74996577  1
  Sm  Sm11  1  0.36093968  0.95478667  0.74996582  1
  Ru  Ru12  1  0.03998681  0.88783007  0.24993002  1
  Ru  Ru13  1  0.46001320  0.38783050  0.24992997  1
  Ru  Ru14  1  0.96001752  0.11218198  0.75006671  1
  Ru  Ru15  1  0.53998287  0.61218203  0.75006656  1
