# generated using pymatgen
data_K2RuO4
_symmetry_space_group_name_H-M   'P 1'
_cell_length_a   6.15438614
_cell_length_b   7.82820962
_cell_length_c   10.50995006
_cell_angle_alpha   90.00000000
_cell_angle_beta   90.00000000
_cell_angle_gamma   90.00000000
_symmetry_Int_Tables_number   1
_chemical_formula_structural   K2RuO4
_chemical_formula_sum   'K8 Ru4 O16'
_cell_volume   506.34653250
_cell_formula_units_Z   4
loop_
 _symmetry_equiv_pos_site_id
 _symmetry_equiv_pos_as_xyz
  1  'x, y, z'
loop_
 _atom_site_type_symbol
 _atom_site_label
 _atom_site_symmetry_multiplicity
 _atom_site_fract_x
 _atom_site_fract_y
 _atom_site_fract_z
 _atom_site_occupancy
  K  K0  1  0.25000000  0.49194880  0.71037811  1
  K  K1  1  0.75000000  0.50805120  0.28962189  1
  K  K2  1  0.25000000  0.99194880  0.78962189  1
  K  K3  1  0.75000000  0.00805120  0.21037811  1
  K  K4  1  0.25000000  0.33803556  0.06906048  1
  K  K5  1  0.75000000  0.66196444  0.93093952  1
  K  K6  1  0.25000000  0.83803556  0.43093952  1
  K  K7  1  0.75000000  0.16196444  0.56906048  1
  Ru  Ru8  1  0.25000000  0.28965590  0.41367089  1
  Ru  Ru9  1  0.75000000  0.71034410  0.58632911  1
  Ru  Ru10  1  0.25000000  0.78965590  0.08632911  1
  Ru  Ru11  1  0.75000000  0.21034410  0.91367089  1
  O  O12  1  0.01663890  0.72980269  0.17505091  1
  O  O13  1  0.51663890  0.27019731  0.82494909  1
  O  O14  1  0.48336110  0.22980269  0.32494909  1
  O  O15  1  0.98336110  0.77019731  0.67505091  1
  O  O16  1  0.98336110  0.27019731  0.82494909  1
  O  O17  1  0.48336110  0.72980269  0.17505091  1
  O  O18  1  0.51663890  0.77019731  0.67505091  1
  O  O19  1  0.01663890  0.22980269  0.32494909  1
  O  O20  1  0.25000000  0.01002932  0.05306920  1
  O  O21  1  0.75000000  0.98997068  0.94693080  1
  O  O22  1  0.25000000  0.51002932  0.44693080  1
  O  O23  1  0.75000000  0.48997068  0.55306920  1
  O  O24  1  0.75000000  0.33533584  0.05610556  1
  O  O25  1  0.25000000  0.66466416  0.94389444  1
  O  O26  1  0.75000000  0.83533584  0.44389444  1
  O  O27  1  0.25000000  0.16466416  0.55610556  1
