# generated using pymatgen
data_Y8In3Co
_symmetry_space_group_name_H-M   'P 1'
_cell_length_a   10.38572399
_cell_length_b   10.38572399
_cell_length_c   7.07828233
_cell_angle_alpha   90.00000000
_cell_angle_beta   90.00000000
_cell_angle_gamma   120.00000221
_symmetry_Int_Tables_number   1
_chemical_formula_structural   Y8In3Co
_chemical_formula_sum   'Y16 In6 Co2'
_cell_volume   661.19879944
_cell_formula_units_Z   2
loop_
 _symmetry_equiv_pos_site_id
 _symmetry_equiv_pos_as_xyz
  1  'x, y, z'
loop_
 _atom_site_type_symbol
 _atom_site_label
 _atom_site_symmetry_multiplicity
 _atom_site_fract_x
 _atom_site_fract_y
 _atom_site_fract_z
 _atom_site_occupancy
  Y  Y0  1  0.46440710  0.53559290  0.48216564  1
  Y  Y1  1  0.07118581  0.53559290  0.48216564  1
  Y  Y2  1  0.46440710  0.92881419  0.48216564  1
  Y  Y3  1  0.53559290  0.46440710  0.98216564  1
  Y  Y4  1  0.92881419  0.46440710  0.98216564  1
  Y  Y5  1  0.53559290  0.07118581  0.98216564  1
  Y  Y6  1  0.82289554  0.17710446  0.27522905  1
  Y  Y7  1  0.35420892  0.17710446  0.27522905  1
  Y  Y8  1  0.82289554  0.64579108  0.27522905  1
  Y  Y9  1  0.17710446  0.82289554  0.77522905  1
  Y  Y10  1  0.64579108  0.82289554  0.77522905  1
  Y  Y11  1  0.17710446  0.35420892  0.77522905  1
  Y  Y12  1  0.33333300  0.66666700  0.09376299  1
  Y  Y13  1  0.66666700  0.33333300  0.59376299  1
  Y  Y14  1  -0.00000000  -0.00000000  0.49605546  1
  Y  Y15  1  -0.00000000  -0.00000000  0.99605546  1
  In  In16  1  0.16336449  0.83663551  0.23436268  1
  In  In17  1  0.67327103  0.83663551  0.23436268  1
  In  In18  1  0.16336449  0.32672897  0.23436268  1
  In  In19  1  0.83663551  0.16336449  0.73436268  1
  In  In20  1  0.32672897  0.16336449  0.73436268  1
  In  In21  1  0.83663551  0.67327103  0.73436268  1
  Co  Co22  1  0.33333300  0.66666700  0.70718644  1
  Co  Co23  1  0.66666700  0.33333300  0.20718644  1
