# generated using pymatgen
data_SmGeRh
_symmetry_space_group_name_H-M   'P 1'
_cell_length_a   4.44839154
_cell_length_b   7.11419740
_cell_length_c   7.39250734
_cell_angle_alpha   90.00000000
_cell_angle_beta   90.00000000
_cell_angle_gamma   90.00000000
_symmetry_Int_Tables_number   1
_chemical_formula_structural   SmGeRh
_chemical_formula_sum   'Sm4 Ge4 Rh4'
_cell_volume   233.94872468
_cell_formula_units_Z   4
loop_
 _symmetry_equiv_pos_site_id
 _symmetry_equiv_pos_as_xyz
  1  'x, y, z'
loop_
 _atom_site_type_symbol
 _atom_site_label
 _atom_site_symmetry_multiplicity
 _atom_site_fract_x
 _atom_site_fract_y
 _atom_site_fract_z
 _atom_site_occupancy
  Sm  Sm0  1  0.25000000  0.98297824  0.30239213  1
  Sm  Sm1  1  0.25000000  0.48297824  0.19760787  1
  Sm  Sm2  1  0.75000000  0.01702176  0.69760787  1
  Sm  Sm3  1  0.75000000  0.51702176  0.80239213  1
  Ge  Ge4  1  0.25000000  0.31204884  0.58866224  1
  Ge  Ge5  1  0.25000000  0.81204884  0.91133776  1
  Ge  Ge6  1  0.75000000  0.68795116  0.41133776  1
  Ge  Ge7  1  0.75000000  0.18795116  0.08866224  1
  Rh  Rh8  1  0.25000000  0.68787268  0.58563551  1
  Rh  Rh9  1  0.25000000  0.18787268  0.91436449  1
  Rh  Rh10  1  0.75000000  0.31212732  0.41436449  1
  Rh  Rh11  1  0.75000000  0.81212732  0.08563551  1
