# generated using pymatgen
data_Cu2HgGeS4
_symmetry_space_group_name_H-M   'P 1'
_cell_length_a   6.53312333
_cell_length_b   6.53312333
_cell_length_c   6.53312333
_cell_angle_alpha   130.14996333
_cell_angle_beta   130.14996333
_cell_angle_gamma   73.16713740
_symmetry_Int_Tables_number   1
_chemical_formula_structural   Cu2HgGeS4
_chemical_formula_sum   'Cu2 Hg1 Ge1 S4'
_cell_volume   159.06935803
_cell_formula_units_Z   1
loop_
 _symmetry_equiv_pos_site_id
 _symmetry_equiv_pos_as_xyz
  1  'x, y, z'
loop_
 _atom_site_type_symbol
 _atom_site_label
 _atom_site_symmetry_multiplicity
 _atom_site_fract_x
 _atom_site_fract_y
 _atom_site_fract_z
 _atom_site_occupancy
  Cu  Cu0  1  0.75000000  0.25000000  0.50000000  1
  Cu  Cu1  1  0.25000000  0.75000000  0.50000000  1
  Hg  Hg2  1  0.00000000  -0.00000000  0.00000000  1
  Ge  Ge3  1  0.50000000  0.50000000  0.00000000  1
  S  S4  1  0.85998735  0.41036736  0.00000000  1
  S  S5  1  0.58963264  0.58963264  0.44961899  1
  S  S6  1  0.41036736  0.85998735  0.00000000  1
  S  S7  1  0.14001265  0.14001265  0.55038101  1
