# generated using pymatgen
data_DyCdCu
_symmetry_space_group_name_H-M   'P 1'
_cell_length_a   7.40362889
_cell_length_b   7.40362889
_cell_length_c   3.88063046
_cell_angle_alpha   90.00000000
_cell_angle_beta   90.00000000
_cell_angle_gamma   119.99999952
_symmetry_Int_Tables_number   1
_chemical_formula_structural   DyCdCu
_chemical_formula_sum   'Dy3 Cd3 Cu3'
_cell_volume   184.21381828
_cell_formula_units_Z   3
loop_
 _symmetry_equiv_pos_site_id
 _symmetry_equiv_pos_as_xyz
  1  'x, y, z'
loop_
 _atom_site_type_symbol
 _atom_site_label
 _atom_site_symmetry_multiplicity
 _atom_site_fract_x
 _atom_site_fract_y
 _atom_site_fract_z
 _atom_site_occupancy
  Dy  Dy0  1  -0.00000000  0.41238169  0.50000000  1
  Dy  Dy1  1  0.58761831  0.58761831  0.50000000  1
  Dy  Dy2  1  0.41238169  -0.00000000  0.50000000  1
  Cd  Cd3  1  0.00000000  0.74990819  0.00000000  1
  Cd  Cd4  1  0.25009181  0.25009181  -0.00000000  1
  Cd  Cd5  1  0.74990819  0.00000000  0.00000000  1
  Cu  Cu6  1  0.33333300  0.66666700  0.00000000  1
  Cu  Cu7  1  0.66666700  0.33333300  0.00000000  1
  Cu  Cu8  1  0.00000000  0.00000000  0.50000000  1
