# generated using pymatgen
data_K2ErF5
_symmetry_space_group_name_H-M   'P 1'
_cell_length_a   6.52263281
_cell_length_b   7.15782682
_cell_length_c   10.68253297
_cell_angle_alpha   90.00000000
_cell_angle_beta   90.00000000
_cell_angle_gamma   90.00000000
_symmetry_Int_Tables_number   1
_chemical_formula_structural   K2ErF5
_chemical_formula_sum   'K8 Er4 F20'
_cell_volume   498.74477536
_cell_formula_units_Z   4
loop_
 _symmetry_equiv_pos_site_id
 _symmetry_equiv_pos_as_xyz
  1  'x, y, z'
loop_
 _atom_site_type_symbol
 _atom_site_label
 _atom_site_symmetry_multiplicity
 _atom_site_fract_x
 _atom_site_fract_y
 _atom_site_fract_z
 _atom_site_occupancy
  K  K0  1  0.53712589  0.99678779  0.82906260  1
  K  K1  1  0.46287411  0.49678779  0.17093740  1
  K  K2  1  0.96287411  0.99678779  0.32906260  1
  K  K3  1  0.03712589  0.49678779  0.67093740  1
  K  K4  1  0.53712589  0.50321221  0.82906260  1
  K  K5  1  0.46287411  0.00321221  0.17093740  1
  K  K6  1  0.96287411  0.50321221  0.32906260  1
  K  K7  1  0.03712589  0.00321221  0.67093740  1
  Er  Er8  1  0.56507673  0.25000000  0.50298163  1
  Er  Er9  1  0.43492327  0.75000000  0.49701837  1
  Er  Er10  1  0.93492327  0.25000000  0.00298163  1
  Er  Er11  1  0.06507673  0.75000000  0.99701837  1
  F  F12  1  0.87309308  0.75000000  0.83239352  1
  F  F13  1  0.12690692  0.25000000  0.16760648  1
  F  F14  1  0.62690692  0.75000000  0.33239352  1
  F  F15  1  0.37309308  0.25000000  0.66760648  1
  F  F16  1  0.84038563  0.25000000  0.80806801  1
  F  F17  1  0.15961437  0.75000000  0.19193199  1
  F  F18  1  0.65961437  0.25000000  0.30806801  1
  F  F19  1  0.34038563  0.75000000  0.69193199  1
  F  F20  1  0.64881403  0.96420903  0.57441838  1
  F  F21  1  0.35118597  0.46420903  0.42558162  1
  F  F22  1  0.85118597  0.96420903  0.07441838  1
  F  F23  1  0.14881403  0.46420903  0.92558162  1
  F  F24  1  0.39521694  0.75000000  0.98697358  1
  F  F25  1  0.60478306  0.25000000  0.01302642  1
  F  F26  1  0.10478306  0.75000000  0.48697358  1
  F  F27  1  0.89521694  0.25000000  0.51302642  1
  F  F28  1  0.14881403  0.03579097  0.92558162  1
  F  F29  1  0.85118597  0.53579097  0.07441838  1
  F  F30  1  0.35118597  0.03579097  0.42558162  1
  F  F31  1  0.64881403  0.53579097  0.57441838  1
