# generated using pymatgen
data_CaAgSb
_symmetry_space_group_name_H-M   'P 1'
_cell_length_a   4.61159836
_cell_length_b   7.72808435
_cell_length_c   8.43392861
_cell_angle_alpha   90.00000000
_cell_angle_beta   90.00000000
_cell_angle_gamma   90.00000000
_symmetry_Int_Tables_number   1
_chemical_formula_structural   CaAgSb
_chemical_formula_sum   'Ca4 Ag4 Sb4'
_cell_volume   300.57527302
_cell_formula_units_Z   4
loop_
 _symmetry_equiv_pos_site_id
 _symmetry_equiv_pos_as_xyz
  1  'x, y, z'
loop_
 _atom_site_type_symbol
 _atom_site_label
 _atom_site_symmetry_multiplicity
 _atom_site_fract_x
 _atom_site_fract_y
 _atom_site_fract_z
 _atom_site_occupancy
  Ca  Ca0  1  0.75000000  0.48195780  0.19500571  1
  Ca  Ca1  1  0.25000000  0.51804220  0.80499429  1
  Ca  Ca2  1  0.25000000  0.01804220  0.69500571  1
  Ca  Ca3  1  0.75000000  0.98195780  0.30499429  1
  Ag  Ag4  1  0.75000000  0.85622514  0.93468770  1
  Ag  Ag5  1  0.75000000  0.35622514  0.56531230  1
  Ag  Ag6  1  0.25000000  0.14377486  0.06531230  1
  Ag  Ag7  1  0.25000000  0.64377486  0.43468770  1
  Sb  Sb8  1  0.75000000  0.74041552  0.61278600  1
  Sb  Sb9  1  0.25000000  0.25958448  0.38721400  1
  Sb  Sb10  1  0.75000000  0.24041552  0.88721400  1
  Sb  Sb11  1  0.25000000  0.75958448  0.11278600  1
