# generated using pymatgen
data_Na3Y(CO3)3
_symmetry_space_group_name_H-M   'P 1'
_cell_length_a   6.45816449
_cell_length_b   6.45816449
_cell_length_c   9.84676872
_cell_angle_alpha   90.00000000
_cell_angle_beta   90.00000000
_cell_angle_gamma   114.25727413
_symmetry_Int_Tables_number   1
_chemical_formula_structural   Na3Y(CO3)3
_chemical_formula_sum   'Na6 Y2 C6 O18'
_cell_volume   374.42825101
_cell_formula_units_Z   2
loop_
 _symmetry_equiv_pos_site_id
 _symmetry_equiv_pos_as_xyz
  1  'x, y, z'
loop_
 _atom_site_type_symbol
 _atom_site_label
 _atom_site_symmetry_multiplicity
 _atom_site_fract_x
 _atom_site_fract_y
 _atom_site_fract_z
 _atom_site_occupancy
  Na  Na0  1  0.40395652  0.36697378  0.25000000  1
  Na  Na1  1  0.36697378  0.40395652  0.75000000  1
  Na  Na2  1  0.79829752  0.20484651  0.25000000  1
  Na  Na3  1  0.20484651  0.79829752  0.75000000  1
  Na  Na4  1  0.07124168  0.07124168  0.00000000  1
  Na  Na5  1  0.07124168  0.07124168  0.50000000  1
  Y  Y6  1  0.22719140  0.77155801  0.25000000  1
  Y  Y7  1  0.77155801  0.22719140  0.75000000  1
  C  C8  1  0.78527016  0.76043674  0.25000000  1
  C  C9  1  0.76043674  0.78527016  0.75000000  1
  C  C10  1  0.11941008  0.53329927  0.00134244  1
  C  C11  1  0.53329927  0.11941008  0.99865756  1
  C  C12  1  0.11941008  0.53329927  0.49865756  1
  C  C13  1  0.53329927  0.11941008  0.50134244  1
  O  O14  1  0.58968305  0.76668264  0.25000000  1
  O  O15  1  0.76668264  0.58968305  0.75000000  1
  O  O16  1  0.80965701  0.57258682  0.25000000  1
  O  O17  1  0.57258682  0.80965701  0.75000000  1
  O  O18  1  0.10486435  0.72446028  0.01298597  1
  O  O19  1  0.72446028  0.10486435  0.98701403  1
  O  O20  1  0.10486435  0.72446028  0.48701403  1
  O  O21  1  0.72446028  0.10486435  0.51298597  1
  O  O22  1  0.97106960  0.94906195  0.25000000  1
  O  O23  1  0.94906195  0.97106960  0.75000000  1
  O  O24  1  0.43449511  0.09904596  0.11447752  1
  O  O25  1  0.09904596  0.43449511  0.88552248  1
  O  O26  1  0.43449511  0.09904596  0.38552248  1
  O  O27  1  0.09904596  0.43449511  0.61447752  1
  O  O28  1  0.16164607  0.44383284  0.11017110  1
  O  O29  1  0.44383284  0.16164607  0.88982890  1
  O  O30  1  0.16164607  0.44383284  0.38982890  1
  O  O31  1  0.44383284  0.16164607  0.61017110  1
