# generated using pymatgen
data_PdAu2(NCl2)4
_symmetry_space_group_name_H-M   'P 1'
_cell_length_a   7.70038400
_cell_length_b   7.92586178
_cell_length_c   8.33349306
_cell_angle_alpha   111.77505574
_cell_angle_beta   104.10309072
_cell_angle_gamma   107.62122908
_symmetry_Int_Tables_number   1
_chemical_formula_structural   PdAu2(NCl2)4
_chemical_formula_sum   'Pd1 Au2 N4 Cl8'
_cell_volume   412.14577379
_cell_formula_units_Z   1
loop_
 _symmetry_equiv_pos_site_id
 _symmetry_equiv_pos_as_xyz
  1  'x, y, z'
loop_
 _atom_site_type_symbol
 _atom_site_label
 _atom_site_symmetry_multiplicity
 _atom_site_fract_x
 _atom_site_fract_y
 _atom_site_fract_z
 _atom_site_occupancy
  Pd  Pd0  1  0.50000000  0.00000000  0.00000000  1
  Au  Au1  1  0.75056600  0.73423300  0.70511800  1
  Au  Au2  1  0.24943400  0.26576700  0.29488200  1
  N  N3  1  0.27187000  0.83230200  0.96078000  1
  N  N4  1  0.72813000  0.16769800  0.03922000  1
  N  N5  1  0.68790800  0.20325200  0.71798800  1
  N  N6  1  0.31209200  0.79674800  0.28201200  1
  Cl  Cl7  1  0.68071300  0.80466900  0.96619400  1
  Cl  Cl8  1  0.31928700  0.19533100  0.03380600  1
  Cl  Cl9  1  0.95534300  0.61069400  0.78958800  1
  Cl  Cl10  1  0.04465700  0.38930600  0.21041200  1
  Cl  Cl11  1  0.83113200  0.65699600  0.46026800  1
  Cl  Cl12  1  0.16886800  0.34300400  0.53973200  1
  Cl  Cl13  1  0.53893300  0.85273100  0.63057800  1
  Cl  Cl14  1  0.46106700  0.14726900  0.36942200  1
