# generated using pymatgen
data_Pr3Ru
_symmetry_space_group_name_H-M   'P 1'
_cell_length_a   6.55759791
_cell_length_b   7.41278685
_cell_length_c   9.92011309
_cell_angle_alpha   90.00000000
_cell_angle_beta   90.00000000
_cell_angle_gamma   90.00000000
_symmetry_Int_Tables_number   1
_chemical_formula_structural   Pr3Ru
_chemical_formula_sum   'Pr12 Ru4'
_cell_volume   482.21744682
_cell_formula_units_Z   4
loop_
 _symmetry_equiv_pos_site_id
 _symmetry_equiv_pos_as_xyz
  1  'x, y, z'
loop_
 _atom_site_type_symbol
 _atom_site_label
 _atom_site_symmetry_multiplicity
 _atom_site_fract_x
 _atom_site_fract_y
 _atom_site_fract_z
 _atom_site_occupancy
  Pr  Pr0  1  0.32615926  0.67336732  0.06939929  1
  Pr  Pr1  1  0.17384074  0.17336732  0.43060071  1
  Pr  Pr2  1  0.67384074  0.32663268  0.56939929  1
  Pr  Pr3  1  0.82615926  0.82663268  0.93060071  1
  Pr  Pr4  1  0.67384074  0.32663268  0.93060071  1
  Pr  Pr5  1  0.82615926  0.82663268  0.56939929  1
  Pr  Pr6  1  0.32615926  0.67336732  0.43060071  1
  Pr  Pr7  1  0.17384074  0.17336732  0.06939929  1
  Pr  Pr8  1  0.85401837  0.54643461  0.25000000  1
  Pr  Pr9  1  0.64598163  0.04643461  0.25000000  1
  Pr  Pr10  1  0.14598163  0.45356539  0.75000000  1
  Pr  Pr11  1  0.35401837  0.95356539  0.75000000  1
  Ru  Ru12  1  0.04914714  0.88715539  0.25000000  1
  Ru  Ru13  1  0.45085286  0.38715539  0.25000000  1
  Ru  Ru14  1  0.95085286  0.11284461  0.75000000  1
  Ru  Ru15  1  0.54914714  0.61284461  0.75000000  1
