# generated using pymatgen
data_CeIrPt
_symmetry_space_group_name_H-M   'P 1'
_cell_length_a   5.43500144
_cell_length_b   5.43500144
_cell_length_c   5.43500144
_cell_angle_alpha   120.53703765
_cell_angle_beta   119.64953182
_cell_angle_gamma   89.84022516
_symmetry_Int_Tables_number   1
_chemical_formula_structural   CeIrPt
_chemical_formula_sum   'Ce2 Ir2 Pt2'
_cell_volume   113.35396038
_cell_formula_units_Z   2
loop_
 _symmetry_equiv_pos_site_id
 _symmetry_equiv_pos_as_xyz
  1  'x, y, z'
loop_
 _atom_site_type_symbol
 _atom_site_label
 _atom_site_symmetry_multiplicity
 _atom_site_fract_x
 _atom_site_fract_y
 _atom_site_fract_z
 _atom_site_occupancy
  Ce  Ce0  1  0.12158756  0.87158756  0.25000000  1
  Ce  Ce1  1  0.87841244  0.12841244  0.75000000  1
  Ir  Ir2  1  -0.00000000  0.50000000  0.50000000  1
  Ir  Ir3  1  0.50000000  0.50000000  0.00000000  1
  Pt  Pt4  1  0.50000000  -0.00000000  0.00000000  1
  Pt  Pt5  1  0.50000000  0.50000000  0.50000000  1
