# generated using pymatgen
data_Sr(SnHg)2
_symmetry_space_group_name_H-M   'P 1'
_cell_length_a   6.90163230
_cell_length_b   6.90163230
_cell_length_c   10.11597196
_cell_angle_alpha   63.91965192
_cell_angle_beta   63.91965192
_cell_angle_gamma   42.03482102
_symmetry_Int_Tables_number   1
_chemical_formula_structural   Sr(SnHg)2
_chemical_formula_sum   'Sr2 Sn4 Hg4'
_cell_volume   284.61568570
_cell_formula_units_Z   2
loop_
 _symmetry_equiv_pos_site_id
 _symmetry_equiv_pos_as_xyz
  1  'x, y, z'
loop_
 _atom_site_type_symbol
 _atom_site_label
 _atom_site_symmetry_multiplicity
 _atom_site_fract_x
 _atom_site_fract_y
 _atom_site_fract_z
 _atom_site_occupancy
  Sr  Sr0  1  0.17462849  0.17462849  0.28355812  1
  Sr  Sr1  1  0.82537151  0.82537151  0.71644188  1
  Sn  Sn2  1  0.12521592  0.12521592  0.94225208  1
  Sn  Sn3  1  0.87478408  0.87478408  0.05774792  1
  Sn  Sn4  1  0.43863048  0.43863048  0.40971657  1
  Sn  Sn5  1  0.56136952  0.56136952  0.59028343  1
  Hg  Hg6  1  0.15552665  0.15552665  0.64244144  1
  Hg  Hg7  1  0.84447335  0.84447335  0.35755856  1
  Hg  Hg8  1  0.39091835  0.39091835  0.90829286  1
  Hg  Hg9  1  0.60908165  0.60908165  0.09170714  1
