# generated using pymatgen
data_Yb(ZnAs)2
_symmetry_space_group_name_H-M   'P 1'
_cell_length_a   4.23647067
_cell_length_b   4.23647067
_cell_length_c   6.36537026
_cell_angle_alpha   90.00000000
_cell_angle_beta   90.00000000
_cell_angle_gamma   120.00001016
_symmetry_Int_Tables_number   1
_chemical_formula_structural   Yb(ZnAs)2
_chemical_formula_sum   'Yb1 Zn2 As2'
_cell_volume   98.93789491
_cell_formula_units_Z   1
loop_
 _symmetry_equiv_pos_site_id
 _symmetry_equiv_pos_as_xyz
  1  'x, y, z'
loop_
 _atom_site_type_symbol
 _atom_site_label
 _atom_site_symmetry_multiplicity
 _atom_site_fract_x
 _atom_site_fract_y
 _atom_site_fract_z
 _atom_site_occupancy
  Yb  Yb0  1  0.00000000  0.00000000  0.00000000  1
  Zn  Zn1  1  0.66666700  0.33333300  0.34549935  1
  Zn  Zn2  1  0.33333300  0.66666700  0.65450065  1
  As  As3  1  0.66666700  0.33333300  0.74585676  1
  As  As4  1  0.33333300  0.66666700  0.25414324  1
