# generated using pymatgen
data_EuInAu
_symmetry_space_group_name_H-M   'P 1'
_cell_length_a   4.71850095
_cell_length_b   7.58277559
_cell_length_c   8.46659854
_cell_angle_alpha   89.99639811
_cell_angle_beta   90.00000000
_cell_angle_gamma   90.00000000
_symmetry_Int_Tables_number   1
_chemical_formula_structural   EuInAu
_chemical_formula_sum   'Eu4 In4 Au4'
_cell_volume   302.92925523
_cell_formula_units_Z   4
loop_
 _symmetry_equiv_pos_site_id
 _symmetry_equiv_pos_as_xyz
  1  'x, y, z'
loop_
 _atom_site_type_symbol
 _atom_site_label
 _atom_site_symmetry_multiplicity
 _atom_site_fract_x
 _atom_site_fract_y
 _atom_site_fract_z
 _atom_site_occupancy
  Eu  Eu0  1  0.75000000  0.47373454  0.81554622  1
  Eu  Eu1  1  0.25000000  0.02627323  0.31552202  1
  Eu  Eu2  1  0.75000000  0.97372677  0.68447798  1
  Eu  Eu3  1  0.25000000  0.52626546  0.18445378  1
  In  In4  1  0.25000000  0.65621274  0.56520124  1
  In  In5  1  0.25000000  0.15625258  0.93480584  1
  In  In6  1  0.75000000  0.34378726  0.43479876  1
  In  In7  1  0.75000000  0.84374742  0.06519416  1
  Au  Au8  1  0.25000000  0.77567785  0.88400598  1
  Au  Au9  1  0.25000000  0.27573141  0.61599959  1
  Au  Au10  1  0.75000000  0.72426859  0.38400041  1
  Au  Au11  1  0.75000000  0.22432215  0.11599402  1
