# generated using pymatgen
data_CeSbIr
_symmetry_space_group_name_H-M   'P 1'
_cell_length_a   4.60423814
_cell_length_b   7.38603970
_cell_length_c   7.90850523
_cell_angle_alpha   89.99436315
_cell_angle_beta   90.00000000
_cell_angle_gamma   90.00000000
_symmetry_Int_Tables_number   1
_chemical_formula_structural   CeSbIr
_chemical_formula_sum   'Ce4 Sb4 Ir4'
_cell_volume   268.94521368
_cell_formula_units_Z   4
loop_
 _symmetry_equiv_pos_site_id
 _symmetry_equiv_pos_as_xyz
  1  'x, y, z'
loop_
 _atom_site_type_symbol
 _atom_site_label
 _atom_site_symmetry_multiplicity
 _atom_site_fract_x
 _atom_site_fract_y
 _atom_site_fract_z
 _atom_site_occupancy
  Ce  Ce0  1  0.25000000  0.01480084  0.30554650  1
  Ce  Ce1  1  0.25000000  0.51476940  0.19432829  1
  Ce  Ce2  1  0.75000000  0.98519916  0.69445350  1
  Ce  Ce3  1  0.75000000  0.48523060  0.80567171  1
  Sb  Sb4  1  0.25000000  0.17589612  0.91252461  1
  Sb  Sb5  1  0.25000000  0.67582737  0.58744497  1
  Sb  Sb6  1  0.75000000  0.82410388  0.08747539  1
  Sb  Sb7  1  0.75000000  0.32417263  0.41255503  1
  Ir  Ir8  1  0.25000000  0.28949545  0.58631282  1
  Ir  Ir9  1  0.25000000  0.78926390  0.91375263  1
  Ir  Ir10  1  0.75000000  0.71050455  0.41368718  1
  Ir  Ir11  1  0.75000000  0.21073610  0.08624737  1
