# generated using pymatgen
data_SmTlCd
_symmetry_space_group_name_H-M   'P 1'
_cell_length_a   4.93072322
_cell_length_b   4.93038338
_cell_length_c   7.46563114
_cell_angle_alpha   90.00000000
_cell_angle_beta   90.00000000
_cell_angle_gamma   120.00228013
_symmetry_Int_Tables_number   1
_chemical_formula_structural   SmTlCd
_chemical_formula_sum   'Sm2 Tl2 Cd2'
_cell_volume   157.17320054
_cell_formula_units_Z   2
loop_
 _symmetry_equiv_pos_site_id
 _symmetry_equiv_pos_as_xyz
  1  'x, y, z'
loop_
 _atom_site_type_symbol
 _atom_site_label
 _atom_site_symmetry_multiplicity
 _atom_site_fract_x
 _atom_site_fract_y
 _atom_site_fract_z
 _atom_site_occupancy
  Sm  Sm0  1  -0.00000000  -0.00000000  0.50000000  1
  Sm  Sm1  1  -0.00000000  -0.00000000  -0.00000000  1
  Tl  Tl2  1  0.33330572  0.66660944  0.75000000  1
  Tl  Tl3  1  0.66669428  0.33339056  0.25000000  1
  Cd  Cd4  1  0.33332088  0.66664176  0.25000000  1
  Cd  Cd5  1  0.66667912  0.33335824  0.75000000  1
