# generated using pymatgen
data_ErBO3
_symmetry_space_group_name_H-M   'P 1'
_cell_length_a   6.47112624
_cell_length_b   6.47112624
_cell_length_c   9.48599388
_cell_angle_alpha   70.42592957
_cell_angle_beta   70.42592957
_cell_angle_gamma   60.08046882
_symmetry_Int_Tables_number   1
_chemical_formula_structural   ErBO3
_chemical_formula_sum   'Er6 B6 O18'
_cell_volume   317.46155011
_cell_formula_units_Z   6
loop_
 _symmetry_equiv_pos_site_id
 _symmetry_equiv_pos_as_xyz
  1  'x, y, z'
loop_
 _atom_site_type_symbol
 _atom_site_label
 _atom_site_symmetry_multiplicity
 _atom_site_fract_x
 _atom_site_fract_y
 _atom_site_fract_z
 _atom_site_occupancy
  Er  Er0  1  0.00000000  0.50000000  0.50000000  1
  Er  Er1  1  0.50000000  -0.00000000  -0.00000000  1
  Er  Er2  1  0.17059607  0.65810204  0.99937193  1
  Er  Er3  1  0.34189796  0.82940393  0.50062807  1
  Er  Er4  1  0.82940393  0.34189796  0.00062807  1
  Er  Er5  1  0.65810204  0.17059607  0.49937193  1
  B  B6  1  0.91785546  0.84079886  0.74668550  1
  B  B7  1  0.15920114  0.08214454  0.75331450  1
  B  B8  1  0.08214454  0.15920114  0.25331450  1
  B  B9  1  0.84079886  0.91785546  0.24668550  1
  B  B10  1  0.67429707  0.32570293  0.75000000  1
  B  B11  1  0.32570293  0.67429707  0.25000000  1
  O  O12  1  0.96663746  0.78153598  0.60110327  1
  O  O13  1  0.21846402  0.03336254  0.89889673  1
  O  O14  1  0.03336254  0.21846402  0.39889673  1
  O  O15  1  0.78153598  0.96663746  0.10110327  1
  O  O16  1  0.86996738  0.68263264  0.88931492  1
  O  O17  1  0.31736736  0.13003262  0.61068508  1
  O  O18  1  0.13003262  0.31736736  0.11068508  1
  O  O19  1  0.68263264  0.86996738  0.38931492  1
  O  O20  1  0.51589549  0.38671017  0.89297232  1
  O  O21  1  0.61328983  0.48410451  0.60702768  1
  O  O22  1  0.48410451  0.61328983  0.10702768  1
  O  O23  1  0.38671017  0.51589549  0.39297232  1
  O  O24  1  0.91682891  0.30147789  0.75191165  1
  O  O25  1  0.69852211  0.08317109  0.74808835  1
  O  O26  1  0.08317109  0.69852211  0.24808835  1
  O  O27  1  0.30147789  0.91682891  0.25191165  1
  O  O28  1  0.13648910  0.86351090  0.75000000  1
  O  O29  1  0.86351090  0.13648910  0.25000000  1
