# generated using pymatgen
data_Nb4Pd
_symmetry_space_group_name_H-M   'P 1'
_cell_length_a   11.70664967
_cell_length_b   11.61964138
_cell_length_c   2.81076230
_cell_angle_alpha   84.84344304
_cell_angle_beta   81.32148230
_cell_angle_gamma   13.83507466
_symmetry_Int_Tables_number   1
_chemical_formula_structural   Nb4Pd
_chemical_formula_sum   'Nb4 Pd1'
_cell_volume   87.74902132
_cell_formula_units_Z   1
loop_
 _symmetry_equiv_pos_site_id
 _symmetry_equiv_pos_as_xyz
  1  'x, y, z'
loop_
 _atom_site_type_symbol
 _atom_site_label
 _atom_site_symmetry_multiplicity
 _atom_site_fract_x
 _atom_site_fract_y
 _atom_site_fract_z
 _atom_site_occupancy
  Nb  Nb0  1  0.40512314  0.40512314  0.59487686  1
  Nb  Nb1  1  0.80253474  0.80253474  0.19746526  1
  Nb  Nb2  1  0.19746526  0.19746526  0.80253474  1
  Nb  Nb3  1  0.59487686  0.59487686  0.40512314  1
  Pd  Pd4  1  0.00000000  0.00000000  -0.00000000  1
