# generated using pymatgen
data_YbB2Os
_symmetry_space_group_name_H-M   'P 1'
_cell_length_a   5.24901265
_cell_length_b   5.80426317
_cell_length_c   6.30232792
_cell_angle_alpha   90.00000000
_cell_angle_beta   90.00000000
_cell_angle_gamma   90.00000000
_symmetry_Int_Tables_number   1
_chemical_formula_structural   YbB2Os
_chemical_formula_sum   'Yb4 B8 Os4'
_cell_volume   192.01082401
_cell_formula_units_Z   4
loop_
 _symmetry_equiv_pos_site_id
 _symmetry_equiv_pos_as_xyz
  1  'x, y, z'
loop_
 _atom_site_type_symbol
 _atom_site_label
 _atom_site_symmetry_multiplicity
 _atom_site_fract_x
 _atom_site_fract_y
 _atom_site_fract_z
 _atom_site_occupancy
  Yb  Yb0  1  0.25000000  0.00953419  0.33314448  1
  Yb  Yb1  1  0.25000000  0.50953419  0.16685552  1
  Yb  Yb2  1  0.75000000  0.99046581  0.66685552  1
  Yb  Yb3  1  0.75000000  0.49046581  0.83314448  1
  B  B4  1  0.08183447  0.35966114  0.53742496  1
  B  B5  1  0.41816553  0.85966114  0.96257504  1
  B  B6  1  0.58183447  0.64033886  0.46257504  1
  B  B7  1  0.91816553  0.14033886  0.03742496  1
  B  B8  1  0.91816553  0.64033886  0.46257504  1
  B  B9  1  0.58183447  0.14033886  0.03742496  1
  B  B10  1  0.41816553  0.35966114  0.53742496  1
  B  B11  1  0.08183447  0.85966114  0.96257504  1
  Os  Os12  1  0.25000000  0.17670269  0.81959569  1
  Os  Os13  1  0.25000000  0.67670269  0.68040431  1
  Os  Os14  1  0.75000000  0.82329731  0.18040431  1
  Os  Os15  1  0.75000000  0.32329731  0.31959569  1
