# generated using pymatgen
data_Sc(FeGe)6
_symmetry_space_group_name_H-M   'P 1'
_cell_length_a   5.05311943
_cell_length_b   5.05299103
_cell_length_c   8.13761773
_cell_angle_alpha   90.00000000
_cell_angle_beta   90.00000000
_cell_angle_gamma   119.99836001
_symmetry_Int_Tables_number   1
_chemical_formula_structural   Sc(FeGe)6
_chemical_formula_sum   'Sc1 Fe6 Ge6'
_cell_volume   179.94640864
_cell_formula_units_Z   1
loop_
 _symmetry_equiv_pos_site_id
 _symmetry_equiv_pos_as_xyz
  1  'x, y, z'
loop_
 _atom_site_type_symbol
 _atom_site_label
 _atom_site_symmetry_multiplicity
 _atom_site_fract_x
 _atom_site_fract_y
 _atom_site_fract_z
 _atom_site_occupancy
  Sc  Sc0  1  -0.00000000  0.00000000  -0.00000000  1
  Fe  Fe1  1  0.50000000  -0.00000000  0.24885555  1
  Fe  Fe2  1  0.50000000  0.50000000  0.24885460  1
  Fe  Fe3  1  -0.00000000  0.50000000  0.24885616  1
  Fe  Fe4  1  0.50000000  0.00000000  0.75114445  1
  Fe  Fe5  1  0.50000000  0.50000000  0.75114540  1
  Fe  Fe6  1  -0.00000000  0.50000000  0.75114384  1
  Ge  Ge7  1  0.33339924  0.66671966  0.50000000  1
  Ge  Ge8  1  0.66660076  0.33328034  0.50000000  1
  Ge  Ge9  1  0.33340635  0.66672262  -0.00000000  1
  Ge  Ge10  1  0.66659365  0.33327738  -0.00000000  1
  Ge  Ge11  1  -0.00000000  -0.00000000  0.65696342  1
  Ge  Ge12  1  -0.00000000  -0.00000000  0.34303658  1
