# generated using pymatgen
data_ErGeRu
_symmetry_space_group_name_H-M   'P 1'
_cell_length_a   4.38003358
_cell_length_b   6.96880682
_cell_length_c   7.15907201
_cell_angle_alpha   90.00000000
_cell_angle_beta   90.00000000
_cell_angle_gamma   90.00000000
_symmetry_Int_Tables_number   1
_chemical_formula_structural   ErGeRu
_chemical_formula_sum   'Er4 Ge4 Ru4'
_cell_volume   218.52070685
_cell_formula_units_Z   4
loop_
 _symmetry_equiv_pos_site_id
 _symmetry_equiv_pos_as_xyz
  1  'x, y, z'
loop_
 _atom_site_type_symbol
 _atom_site_label
 _atom_site_symmetry_multiplicity
 _atom_site_fract_x
 _atom_site_fract_y
 _atom_site_fract_z
 _atom_site_occupancy
  Er  Er0  1  0.25000000  0.48550928  0.80775269  1
  Er  Er1  1  0.75000000  0.51449072  0.19224731  1
  Er  Er2  1  0.25000000  0.98550928  0.69224731  1
  Er  Er3  1  0.75000000  0.01449072  0.30775269  1
  Ge  Ge4  1  0.25000000  0.79670846  0.10712080  1
  Ge  Ge5  1  0.75000000  0.20329154  0.89287920  1
  Ge  Ge6  1  0.25000000  0.29670846  0.39287920  1
  Ge  Ge7  1  0.75000000  0.70329154  0.60712080  1
  Ru  Ru8  1  0.75000000  0.84547654  0.93705673  1
  Ru  Ru9  1  0.25000000  0.15452346  0.06294327  1
  Ru  Ru10  1  0.75000000  0.34547654  0.56294327  1
  Ru  Ru11  1  0.25000000  0.65452346  0.43705673  1
