# generated using pymatgen
data_PrAsS
_symmetry_space_group_name_H-M   'P 1'
_cell_length_a   3.93912907
_cell_length_b   4.01409829
_cell_length_c   17.65513827
_cell_angle_alpha   90.00000000
_cell_angle_beta   90.00000000
_cell_angle_gamma   90.00000000
_symmetry_Int_Tables_number   1
_chemical_formula_structural   PrAsS
_chemical_formula_sum   'Pr4 As4 S4'
_cell_volume   279.16395140
_cell_formula_units_Z   4
loop_
 _symmetry_equiv_pos_site_id
 _symmetry_equiv_pos_as_xyz
  1  'x, y, z'
loop_
 _atom_site_type_symbol
 _atom_site_label
 _atom_site_symmetry_multiplicity
 _atom_site_fract_x
 _atom_site_fract_y
 _atom_site_fract_z
 _atom_site_occupancy
  Pr  Pr0  1  0.25000000  0.22894743  0.85445308  1
  Pr  Pr1  1  0.25000000  0.27105257  0.35445308  1
  Pr  Pr2  1  0.75000000  0.77105257  0.14554692  1
  Pr  Pr3  1  0.75000000  0.72894743  0.64554692  1
  As  As4  1  0.75000000  0.20214950  0.50231642  1
  As  As5  1  0.75000000  0.29785050  0.00231642  1
  As  As6  1  0.25000000  0.79785050  0.49768358  1
  As  As7  1  0.25000000  0.70214950  0.99768358  1
  S  S8  1  0.25000000  0.23170523  0.68665888  1
  S  S9  1  0.25000000  0.26829477  0.18665888  1
  S  S10  1  0.75000000  0.76829477  0.31334112  1
  S  S11  1  0.75000000  0.73170523  0.81334112  1
