# generated using pymatgen
data_AlBW
_symmetry_space_group_name_H-M   'P 1'
_cell_length_a   7.14094172
_cell_length_b   7.14094172
_cell_length_c   3.10444525
_cell_angle_alpha   90.00000000
_cell_angle_beta   90.00000000
_cell_angle_gamma   154.05569580
_symmetry_Int_Tables_number   1
_chemical_formula_structural   AlBW
_chemical_formula_sum   'Al2 B2 W2'
_cell_volume   69.25805722
_cell_formula_units_Z   2
loop_
 _symmetry_equiv_pos_site_id
 _symmetry_equiv_pos_as_xyz
  1  'x, y, z'
loop_
 _atom_site_type_symbol
 _atom_site_label
 _atom_site_symmetry_multiplicity
 _atom_site_fract_x
 _atom_site_fract_y
 _atom_site_fract_z
 _atom_site_occupancy
  Al  Al0  1  0.69986153  0.30013847  0.25000000  1
  Al  Al1  1  0.30013847  0.69986153  0.75000000  1
  B  B2  1  0.53451529  0.46548471  0.25000000  1
  B  B3  1  0.46548471  0.53451529  0.75000000  1
  W  W4  1  0.09041825  0.90958175  0.75000000  1
  W  W5  1  0.90958175  0.09041825  0.25000000  1
