# generated using pymatgen
data_EuAl2Ge
_symmetry_space_group_name_H-M   'P 1'
_cell_length_a   4.27851562
_cell_length_b   7.22907098
_cell_length_c   11.19202813
_cell_angle_alpha   90.00000000
_cell_angle_beta   90.00000000
_cell_angle_gamma   90.00000000
_symmetry_Int_Tables_number   1
_chemical_formula_structural   EuAl2Ge
_chemical_formula_sum   'Eu4 Al8 Ge4'
_cell_volume   346.16599529
_cell_formula_units_Z   4
loop_
 _symmetry_equiv_pos_site_id
 _symmetry_equiv_pos_as_xyz
  1  'x, y, z'
loop_
 _atom_site_type_symbol
 _atom_site_label
 _atom_site_symmetry_multiplicity
 _atom_site_fract_x
 _atom_site_fract_y
 _atom_site_fract_z
 _atom_site_occupancy
  Eu  Eu0  1  0.25000000  0.35479217  0.63953174  1
  Eu  Eu1  1  0.25000000  0.85479217  0.86046826  1
  Eu  Eu2  1  0.75000000  0.64520783  0.36046826  1
  Eu  Eu3  1  0.75000000  0.14520783  0.13953174  1
  Al  Al4  1  0.25000000  0.97239742  0.34366164  1
  Al  Al5  1  0.25000000  0.47239742  0.15633836  1
  Al  Al6  1  0.75000000  0.02760258  0.65633836  1
  Al  Al7  1  0.75000000  0.52760258  0.84366164  1
  Al  Al8  1  0.25000000  0.35013093  0.93685834  1
  Al  Al9  1  0.25000000  0.85013093  0.56314166  1
  Al  Al10  1  0.75000000  0.64986907  0.06314166  1
  Al  Al11  1  0.75000000  0.14986907  0.43685834  1
  Ge  Ge12  1  0.25000000  0.32672475  0.35844370  1
  Ge  Ge13  1  0.25000000  0.82672475  0.14155630  1
  Ge  Ge14  1  0.75000000  0.67327525  0.64155630  1
  Ge  Ge15  1  0.75000000  0.17327525  0.85844370  1
