# generated using pymatgen
data_Y2B6Ru
_symmetry_space_group_name_H-M   'P 1'
_cell_length_a   3.66251472
_cell_length_b   9.14673708
_cell_length_c   11.51387130
_cell_angle_alpha   90.00000000
_cell_angle_beta   90.00000000
_cell_angle_gamma   90.00000000
_symmetry_Int_Tables_number   1
_chemical_formula_structural   Y2B6Ru
_chemical_formula_sum   'Y8 B24 Ru4'
_cell_volume   385.71537012
_cell_formula_units_Z   4
loop_
 _symmetry_equiv_pos_site_id
 _symmetry_equiv_pos_as_xyz
  1  'x, y, z'
loop_
 _atom_site_type_symbol
 _atom_site_label
 _atom_site_symmetry_multiplicity
 _atom_site_fract_x
 _atom_site_fract_y
 _atom_site_fract_z
 _atom_site_occupancy
  Y  Y0  1  0.00000000  0.32260416  0.41408468  1
  Y  Y1  1  -0.00000000  0.67739584  0.58591532  1
  Y  Y2  1  -0.00000000  0.82260416  0.08591532  1
  Y  Y3  1  -0.00000000  0.17739584  0.91408468  1
  Y  Y4  1  0.00000000  0.94380639  0.37280095  1
  Y  Y5  1  -0.00000000  0.05619361  0.62719905  1
  Y  Y6  1  0.00000000  0.44380639  0.12719905  1
  Y  Y7  1  -0.00000000  0.55619361  0.87280095  1
  B  B8  1  0.50000000  0.55395890  0.43255360  1
  B  B9  1  0.50000000  0.44604110  0.56744640  1
  B  B10  1  0.50000000  0.05395890  0.06744640  1
  B  B11  1  0.50000000  0.94604110  0.93255360  1
  B  B12  1  0.50000000  0.74718986  0.41972709  1
  B  B13  1  0.50000000  0.25281014  0.58027291  1
  B  B14  1  0.50000000  0.24718986  0.08027291  1
  B  B15  1  0.50000000  0.75281014  0.91972709  1
  B  B16  1  0.50000000  0.79020859  0.26669329  1
  B  B17  1  0.50000000  0.20979141  0.73330671  1
  B  B18  1  0.50000000  0.29020859  0.23330671  1
  B  B19  1  0.50000000  0.70979141  0.76669329  1
  B  B20  1  0.50000000  0.63201050  0.18571940  1
  B  B21  1  0.50000000  0.36798950  0.81428060  1
  B  B22  1  0.50000000  0.13201050  0.31428060  1
  B  B23  1  0.50000000  0.86798950  0.68571940  1
  B  B24  1  0.50000000  0.98402435  0.21279753  1
  B  B25  1  0.50000000  0.01597565  0.78720247  1
  B  B26  1  0.50000000  0.48402435  0.28720247  1
  B  B27  1  0.50000000  0.51597565  0.71279753  1
  B  B28  1  0.50000000  0.61120912  0.03074701  1
  B  B29  1  0.50000000  0.38879088  0.96925299  1
  B  B30  1  0.50000000  0.11120912  0.46925299  1
  B  B31  1  0.50000000  0.88879088  0.53074701  1
  Ru  Ru32  1  -0.00000000  0.63770437  0.32124440  1
  Ru  Ru33  1  0.00000000  0.36229563  0.67875560  1
  Ru  Ru34  1  0.00000000  0.13770437  0.17875560  1
  Ru  Ru35  1  -0.00000000  0.86229563  0.82124440  1
