# generated using pymatgen
data_SrIrO3
_symmetry_space_group_name_H-M   'P 1'
_cell_length_a   5.56215181
_cell_length_b   5.56205711
_cell_length_c   14.32050561
_cell_angle_alpha   88.53209776
_cell_angle_beta   88.53074306
_cell_angle_gamma   119.71417531
_symmetry_Int_Tables_number   1
_chemical_formula_structural   SrIrO3
_chemical_formula_sum   'Sr6 Ir6 O18'
_cell_volume   384.27714003
_cell_formula_units_Z   6
loop_
 _symmetry_equiv_pos_site_id
 _symmetry_equiv_pos_as_xyz
  1  'x, y, z'
loop_
 _atom_site_type_symbol
 _atom_site_label
 _atom_site_symmetry_multiplicity
 _atom_site_fract_x
 _atom_site_fract_y
 _atom_site_fract_z
 _atom_site_occupancy
  Sr  Sr0  1  0.00515393  0.99488598  0.24997204  1
  Sr  Sr1  1  0.99467121  0.00527254  0.75003343  1
  Sr  Sr2  1  0.65113185  0.32064577  0.10187515  1
  Sr  Sr3  1  0.67940259  0.34891369  0.39810980  1
  Sr  Sr4  1  0.34948058  0.67920361  0.89681776  1
  Sr  Sr5  1  0.32075353  0.65049282  0.60319167  1
  Ir  Ir6  1  1.00075942  1.00028018  0.99980136  1
  Ir  Ir7  1  -0.00028547  0.99923168  0.50020242  1
  Ir  Ir8  1  0.68634141  0.35511510  0.84718944  1
  Ir  Ir9  1  0.64486372  0.31361778  0.65284931  1
  Ir  Ir10  1  0.31299479  0.64474847  0.15271301  1
  Ir  Ir11  1  0.35526644  0.68701144  0.34724697  1
  O  O12  1  0.49281576  0.50718226  0.24996357  1
  O  O13  1  0.50629275  0.49370399  0.75001931  1
  O  O14  1  0.03246871  0.50453626  0.26480210  1
  O  O15  1  0.49549069  0.96753744  0.23514922  1
  O  O16  1  0.96833981  0.49562594  0.73604079  1
  O  O17  1  0.50433223  0.03162920  0.76399462  1
  O  O18  1  0.59660863  0.79308380  0.04204625  1
  O  O19  1  0.20689598  0.40339699  0.45792987  1
  O  O20  1  0.40245296  0.20753851  0.95670566  1
  O  O21  1  0.79249837  0.59754527  0.54331781  1
  O  O22  1  0.21746912  0.92728342  0.40197576  1
  O  O23  1  0.07272819  0.78252841  0.09798620  1
  O  O24  1  0.78244307  0.07390592  0.59730799  1
  O  O25  1  0.92607463  0.21760932  0.90274530  1
  O  O26  1  0.08022534  0.26957135  0.10075294  1
  O  O27  1  0.73044478  0.91971941  0.39921396  1
  O  O28  1  0.92267792  0.73076337  0.89960207  1
  O  O29  1  0.26920508  0.07742109  0.60044122  1
