# generated using pymatgen
data_K2ThF6
_symmetry_space_group_name_H-M   'P 1'
_cell_length_a   7.25385562
_cell_length_b   7.25385562
_cell_length_c   7.25385562
_cell_angle_alpha   146.71897545
_cell_angle_beta   130.39425574
_cell_angle_gamma   61.05088356
_symmetry_Int_Tables_number   1
_chemical_formula_structural   K2ThF6
_chemical_formula_sum   'K2 Th1 F6'
_cell_volume   157.98804221
_cell_formula_units_Z   1
loop_
 _symmetry_equiv_pos_site_id
 _symmetry_equiv_pos_as_xyz
  1  'x, y, z'
loop_
 _atom_site_type_symbol
 _atom_site_label
 _atom_site_symmetry_multiplicity
 _atom_site_fract_x
 _atom_site_fract_y
 _atom_site_fract_z
 _atom_site_occupancy
  K  K0  1  0.67010675  0.67010675  0.00000000  1
  K  K1  1  0.32989325  0.32989325  0.00000000  1
  Th  Th2  1  0.00000000  -0.00000000  0.00000000  1
  F  F3  1  0.79324603  0.50000000  0.29324603  1
  F  F4  1  0.37115604  0.14364394  0.22751110  1
  F  F5  1  0.08386816  0.85635606  0.22751110  1
  F  F6  1  0.20675397  0.50000000  0.70675397  1
  F  F7  1  0.91613184  0.14364394  0.77248890  1
  F  F8  1  0.62884396  0.85635606  0.77248890  1
