# generated using pymatgen
data_TiFeP
_symmetry_space_group_name_H-M   'P 1'
_cell_length_a   3.59870097
_cell_length_b   5.95170157
_cell_length_c   6.84421131
_cell_angle_alpha   90.00000000
_cell_angle_beta   90.00000000
_cell_angle_gamma   90.00000000
_symmetry_Int_Tables_number   1
_chemical_formula_structural   TiFeP
_chemical_formula_sum   'Ti4 Fe4 P4'
_cell_volume   146.59201592
_cell_formula_units_Z   4
loop_
 _symmetry_equiv_pos_site_id
 _symmetry_equiv_pos_as_xyz
  1  'x, y, z'
loop_
 _atom_site_type_symbol
 _atom_site_label
 _atom_site_symmetry_multiplicity
 _atom_site_fract_x
 _atom_site_fract_y
 _atom_site_fract_z
 _atom_site_occupancy
  Ti  Ti0  1  0.75000000  0.47748293  0.67978852  1
  Ti  Ti1  1  0.75000000  0.97741756  0.82022202  1
  Ti  Ti2  1  0.25000000  0.52258244  0.32022202  1
  Ti  Ti3  1  0.25000000  0.02251707  0.17978852  1
  Fe  Fe4  1  0.75000000  0.35303789  0.06051017  1
  Fe  Fe5  1  0.75000000  0.85300297  0.43947477  1
  Fe  Fe6  1  0.25000000  0.64699703  0.93947477  1
  Fe  Fe7  1  0.25000000  0.14696211  0.56051017  1
  P  P8  1  0.75000000  0.72594302  0.12282745  1
  P  P9  1  0.75000000  0.22592565  0.37717807  1
  P  P10  1  0.25000000  0.27407435  0.87717807  1
  P  P11  1  0.25000000  0.77405698  0.62282745  1
