# generated using pymatgen
data_YbZnPd
_symmetry_space_group_name_H-M   'P 1'
_cell_length_a   3.95472060
_cell_length_b   6.91286008
_cell_length_c   8.14862162
_cell_angle_alpha   90.00000000
_cell_angle_beta   90.00000000
_cell_angle_gamma   90.00000000
_symmetry_Int_Tables_number   1
_chemical_formula_structural   YbZnPd
_chemical_formula_sum   'Yb4 Zn4 Pd4'
_cell_volume   222.77052295
_cell_formula_units_Z   4
loop_
 _symmetry_equiv_pos_site_id
 _symmetry_equiv_pos_as_xyz
  1  'x, y, z'
loop_
 _atom_site_type_symbol
 _atom_site_label
 _atom_site_symmetry_multiplicity
 _atom_site_fract_x
 _atom_site_fract_y
 _atom_site_fract_z
 _atom_site_occupancy
  Yb  Yb0  1  0.25000000  0.55636736  0.18802488  1
  Yb  Yb1  1  0.75000000  0.44363264  0.81197512  1
  Yb  Yb2  1  0.25000000  0.05636736  0.31197512  1
  Yb  Yb3  1  0.75000000  0.94363264  0.68802488  1
  Zn  Zn4  1  0.25000000  0.62555510  0.56328665  1
  Zn  Zn5  1  0.75000000  0.37444490  0.43671335  1
  Zn  Zn6  1  0.25000000  0.12555510  0.93671335  1
  Zn  Zn7  1  0.75000000  0.87444490  0.06328665  1
  Pd  Pd8  1  0.75000000  0.75899952  0.37750429  1
  Pd  Pd9  1  0.25000000  0.24100048  0.62249571  1
  Pd  Pd10  1  0.75000000  0.25899952  0.12249571  1
  Pd  Pd11  1  0.25000000  0.74100048  0.87750429  1
