# generated using pymatgen
data_PrPt
_symmetry_space_group_name_H-M   'P 1'
_cell_length_a   4.61913110
_cell_length_b   5.74409185
_cell_length_c   7.41845162
_cell_angle_alpha   90.00000000
_cell_angle_beta   90.00000000
_cell_angle_gamma   90.00000000
_symmetry_Int_Tables_number   1
_chemical_formula_structural   PrPt
_chemical_formula_sum   'Pr4 Pt4'
_cell_volume   196.83165000
_cell_formula_units_Z   4
loop_
 _symmetry_equiv_pos_site_id
 _symmetry_equiv_pos_as_xyz
  1  'x, y, z'
loop_
 _atom_site_type_symbol
 _atom_site_label
 _atom_site_symmetry_multiplicity
 _atom_site_fract_x
 _atom_site_fract_y
 _atom_site_fract_z
 _atom_site_occupancy
  Pr  Pr0  1  0.25000000  0.36194675  0.68312850  1
  Pr  Pr1  1  0.25000000  0.13805325  0.18312850  1
  Pr  Pr2  1  0.75000000  0.63805325  0.31687150  1
  Pr  Pr3  1  0.75000000  0.86194675  0.81687150  1
  Pt  Pt4  1  0.25000000  0.84745973  0.54441954  1
  Pt  Pt5  1  0.25000000  0.65254027  0.04441954  1
  Pt  Pt6  1  0.75000000  0.15254027  0.45558046  1
  Pt  Pt7  1  0.75000000  0.34745973  0.95558046  1
