# generated using pymatgen
data_CeGaAg
_symmetry_space_group_name_H-M   'P 1'
_cell_length_a   5.89835688
_cell_length_b   5.89478728
_cell_length_c   5.89478728
_cell_angle_alpha   133.08578816
_cell_angle_beta   103.89467388
_cell_angle_gamma   94.39188238
_symmetry_Int_Tables_number   1
_chemical_formula_structural   CeGaAg
_chemical_formula_sum   'Ce2 Ga2 Ag2'
_cell_volume   136.68348572
_cell_formula_units_Z   2
loop_
 _symmetry_equiv_pos_site_id
 _symmetry_equiv_pos_as_xyz
  1  'x, y, z'
loop_
 _atom_site_type_symbol
 _atom_site_label
 _atom_site_symmetry_multiplicity
 _atom_site_fract_x
 _atom_site_fract_y
 _atom_site_fract_z
 _atom_site_occupancy
  Ce  Ce0  1  0.06160124  0.06127829  0.00032295  1
  Ce  Ce1  1  0.50831616  0.00760616  0.50071000  1
  Ga  Ga2  1  0.50798655  0.70217406  0.80581449  1
  Ga  Ga3  1  0.89370892  0.70214452  0.19156439  1
  Ag  Ag4  1  0.09004009  0.37008081  0.71995927  1
  Ag  Ag5  1  0.65159304  0.36996315  0.28162989  1
