# generated using pymatgen
data_MnFeSi2
_symmetry_space_group_name_H-M   'P 1'
_cell_length_a   4.44307307
_cell_length_b   4.46167307
_cell_length_c   4.48158811
_cell_angle_alpha   89.62373614
_cell_angle_beta   90.00111901
_cell_angle_gamma   89.99966589
_symmetry_Int_Tables_number   1
_chemical_formula_structural   MnFeSi2
_chemical_formula_sum   'Mn2 Fe2 Si4'
_cell_volume   88.83902291
_cell_formula_units_Z   2
loop_
 _symmetry_equiv_pos_site_id
 _symmetry_equiv_pos_as_xyz
  1  'x, y, z'
loop_
 _atom_site_type_symbol
 _atom_site_label
 _atom_site_symmetry_multiplicity
 _atom_site_fract_x
 _atom_site_fract_y
 _atom_site_fract_z
 _atom_site_occupancy
  Mn  Mn0  1  0.63739886  0.13064468  0.39340134  1
  Mn  Mn1  1  0.13734333  0.86933762  0.60657946  1
  Fe  Fe2  1  0.36144993  0.36029414  0.88524745  1
  Fe  Fe3  1  0.86144472  0.63972865  0.11478185  1
  Si  Si4  1  0.65801069  0.64897595  0.59834469  1
  Si  Si5  1  0.15800584  0.35101645  0.40163199  1
  Si  Si6  1  0.34317834  0.83695949  0.08995504  1
  Si  Si7  1  0.84316928  0.16304200  0.91005819  1
