# generated using pymatgen
data_NbVP
_symmetry_space_group_name_H-M   'P 1'
_cell_length_a   3.41151518
_cell_length_b   6.40890264
_cell_length_c   7.71269217
_cell_angle_alpha   90.00000000
_cell_angle_beta   90.00000000
_cell_angle_gamma   90.00000000
_symmetry_Int_Tables_number   1
_chemical_formula_structural   NbVP
_chemical_formula_sum   'Nb4 V4 P4'
_cell_volume   168.63083103
_cell_formula_units_Z   4
loop_
 _symmetry_equiv_pos_site_id
 _symmetry_equiv_pos_as_xyz
  1  'x, y, z'
loop_
 _atom_site_type_symbol
 _atom_site_label
 _atom_site_symmetry_multiplicity
 _atom_site_fract_x
 _atom_site_fract_y
 _atom_site_fract_z
 _atom_site_occupancy
  Nb  Nb0  1  0.75000000  0.46172785  0.66825744  1
  Nb  Nb1  1  0.75000000  0.96172785  0.83174256  1
  Nb  Nb2  1  0.25000000  0.53827215  0.33174256  1
  Nb  Nb3  1  0.25000000  0.03827215  0.16825744  1
  V  V4  1  0.75000000  0.36418659  0.05727309  1
  V  V5  1  0.75000000  0.86418659  0.44272691  1
  V  V6  1  0.25000000  0.63581341  0.94272691  1
  V  V7  1  0.25000000  0.13581341  0.55727309  1
  P  P8  1  0.75000000  0.73897109  0.13909912  1
  P  P9  1  0.75000000  0.23897109  0.36090088  1
  P  P10  1  0.25000000  0.26102891  0.86090088  1
  P  P11  1  0.25000000  0.76102891  0.63909912  1
