# generated using pymatgen
data_Tb2BiO2
_symmetry_space_group_name_H-M   'P 1'
_cell_length_a   3.87915316
_cell_length_b   3.87915316
_cell_length_c   7.29880710
_cell_angle_alpha   105.41086824
_cell_angle_beta   105.41086824
_cell_angle_gamma   90.00000000
_symmetry_Int_Tables_number   1
_chemical_formula_structural   Tb2BiO2
_chemical_formula_sum   'Tb2 Bi1 O2'
_cell_volume   101.78014250
_cell_formula_units_Z   1
loop_
 _symmetry_equiv_pos_site_id
 _symmetry_equiv_pos_as_xyz
  1  'x, y, z'
loop_
 _atom_site_type_symbol
 _atom_site_label
 _atom_site_symmetry_multiplicity
 _atom_site_fract_x
 _atom_site_fract_y
 _atom_site_fract_z
 _atom_site_occupancy
  Tb  Tb0  1  0.66784875  0.66784875  0.33569650  1
  Tb  Tb1  1  0.33215125  0.33215125  0.66430350  1
  Bi  Bi2  1  -0.00000000  -0.00000000  -0.00000000  1
  O  O3  1  0.25000000  0.75000000  0.50000000  1
  O  O4  1  0.75000000  0.25000000  0.50000000  1
