# generated using pymatgen
data_YbGaCoO4
_symmetry_space_group_name_H-M   'P 1'
_cell_length_a   8.58504606
_cell_length_b   8.58504606
_cell_length_c   8.58504602
_cell_angle_alpha   22.79447561
_cell_angle_beta   22.79447561
_cell_angle_gamma   22.79447526
_symmetry_Int_Tables_number   1
_chemical_formula_structural   YbGaCoO4
_chemical_formula_sum   'Yb1 Ga1 Co1 O4'
_cell_volume   83.33466177
_cell_formula_units_Z   1
loop_
 _symmetry_equiv_pos_site_id
 _symmetry_equiv_pos_as_xyz
  1  'x, y, z'
loop_
 _atom_site_type_symbol
 _atom_site_label
 _atom_site_symmetry_multiplicity
 _atom_site_fract_x
 _atom_site_fract_y
 _atom_site_fract_z
 _atom_site_occupancy
  Yb  Yb0  1  0.00176860  0.00176860  0.00176860  1
  Ga  Ga1  1  0.78681058  0.78681058  0.78681058  1
  Co  Co2  1  0.21610375  0.21610375  0.21610375  1
  O  O3  1  0.71060360  0.71060360  0.71060360  1
  O  O4  1  0.29434450  0.29434450  0.29434450  1
  O  O5  1  0.86373881  0.86373881  0.86373881  1
  O  O6  1  0.12182916  0.12182916  0.12182916  1
