# generated using pymatgen
data_PuPO4
_symmetry_space_group_name_H-M   'P 1'
_cell_length_a   6.99971839
_cell_length_b   6.42042511
_cell_length_c   8.12268980
_cell_angle_alpha   53.53997626
_cell_angle_beta   90.00000000
_cell_angle_gamma   90.00000000
_symmetry_Int_Tables_number   1
_chemical_formula_structural   PuPO4
_chemical_formula_sum   'Pu4 P4 O16'
_cell_volume   293.59388063
_cell_formula_units_Z   4
loop_
 _symmetry_equiv_pos_site_id
 _symmetry_equiv_pos_as_xyz
  1  'x, y, z'
loop_
 _atom_site_type_symbol
 _atom_site_label
 _atom_site_symmetry_multiplicity
 _atom_site_fract_x
 _atom_site_fract_y
 _atom_site_fract_z
 _atom_site_occupancy
  Pu  Pu0  1  0.33489207  0.18232655  0.71511669  1
  Pu  Pu1  1  0.16510793  0.18232655  0.21511669  1
  Pu  Pu2  1  0.66510793  0.81767345  0.28488331  1
  Pu  Pu3  1  0.83489207  0.81767345  0.78488331  1
  P  P4  1  0.33456848  0.69319362  0.69275937  1
  P  P5  1  0.16543152  0.69319362  0.19275937  1
  P  P6  1  0.66543152  0.30680638  0.30724063  1
  P  P7  1  0.83456848  0.30680638  0.80724063  1
  O  O8  1  0.99117791  0.19346053  0.74944827  1
  O  O9  1  0.50882209  0.19346053  0.24944827  1
  O  O10  1  0.00882209  0.80653947  0.25055173  1
  O  O11  1  0.49117791  0.80653947  0.75055173  1
  O  O12  1  0.39384759  0.66884118  0.52267084  1
  O  O13  1  0.10615241  0.66884118  0.02267084  1
  O  O14  1  0.60615241  0.33115882  0.47732916  1
  O  O15  1  0.89384759  0.33115882  0.97732916  1
  O  O16  1  0.28176322  0.41549274  0.87055505  1
  O  O17  1  0.21823678  0.41549274  0.37055505  1
  O  O18  1  0.71823678  0.58450726  0.12944495  1
  O  O19  1  0.78176322  0.58450726  0.62944495  1
  O  O20  1  0.16610987  0.88574061  0.61410306  1
  O  O21  1  0.33389013  0.88574061  0.11410306  1
  O  O22  1  0.83389013  0.11425939  0.38589694  1
  O  O23  1  0.66610987  0.11425939  0.88589694  1
