# generated using pymatgen
data_PrHgPd
_symmetry_space_group_name_H-M   'P 1'
_cell_length_a   7.81219539
_cell_length_b   7.81219539
_cell_length_c   3.95917364
_cell_angle_alpha   90.00000000
_cell_angle_beta   90.00000000
_cell_angle_gamma   119.99999654
_symmetry_Int_Tables_number   1
_chemical_formula_structural   PrHgPd
_chemical_formula_sum   'Pr3 Hg3 Pd3'
_cell_volume   209.25767224
_cell_formula_units_Z   3
loop_
 _symmetry_equiv_pos_site_id
 _symmetry_equiv_pos_as_xyz
  1  'x, y, z'
loop_
 _atom_site_type_symbol
 _atom_site_label
 _atom_site_symmetry_multiplicity
 _atom_site_fract_x
 _atom_site_fract_y
 _atom_site_fract_z
 _atom_site_occupancy
  Pr  Pr0  1  0.39866881  0.39866881  0.50000000  1
  Pr  Pr1  1  0.60133119  -0.00000000  0.50000000  1
  Pr  Pr2  1  -0.00000000  0.60133119  0.50000000  1
  Hg  Hg3  1  0.73644892  0.73644892  -0.00000000  1
  Hg  Hg4  1  0.26355108  -0.00000000  0.00000000  1
  Hg  Hg5  1  -0.00000000  0.26355108  0.00000000  1
  Pd  Pd6  1  0.66666700  0.33333300  -0.00000000  1
  Pd  Pd7  1  0.33333300  0.66666700  -0.00000000  1
  Pd  Pd8  1  0.00000000  0.00000000  0.50000000  1
