# generated using pymatgen
data_Ce2PPt8
_symmetry_space_group_name_H-M   'P 1'
_cell_length_a   9.14339486
_cell_length_b   9.14334902
_cell_length_c   4.27435817
_cell_angle_alpha   90.00000000
_cell_angle_beta   90.00000000
_cell_angle_gamma   145.48772698
_symmetry_Int_Tables_number   1
_chemical_formula_structural   Ce2PPt8
_chemical_formula_sum   'Ce2 P1 Pt8'
_cell_volume   202.46363836
_cell_formula_units_Z   1
loop_
 _symmetry_equiv_pos_site_id
 _symmetry_equiv_pos_as_xyz
  1  'x, y, z'
loop_
 _atom_site_type_symbol
 _atom_site_label
 _atom_site_symmetry_multiplicity
 _atom_site_fract_x
 _atom_site_fract_y
 _atom_site_fract_z
 _atom_site_occupancy
  Ce  Ce0  1  0.61973361  0.37117534  0.50000000  1
  Ce  Ce1  1  0.37114779  0.61970071  0.50000000  1
  P  P2  1  0.22374221  0.22374061  -0.00000000  1
  Pt  Pt3  1  0.11058996  0.89117927  0.00000000  1
  Pt  Pt4  1  0.89122654  0.11065421  0.00000000  1
  Pt  Pt5  1  0.48974446  0.98368391  -0.00000000  1
  Pt  Pt6  1  0.98379124  0.48974369  -0.00000000  1
  Pt  Pt7  1  0.19402413  0.79254680  0.50000000  1
  Pt  Pt8  1  0.79255938  0.19396481  0.50000000  1
  Pt  Pt9  1  0.00526873  0.00534047  0.50000000  1
  Pt  Pt10  1  0.63177096  0.63186919  -0.00000000  1
