# generated using pymatgen
data_Ru3Rh
_symmetry_space_group_name_H-M   'P 1'
_cell_length_a   5.41133128
_cell_length_b   5.41132974
_cell_length_c   4.28541633
_cell_angle_alpha   89.99991002
_cell_angle_beta   90.00006736
_cell_angle_gamma   119.99998930
_symmetry_Int_Tables_number   1
_chemical_formula_structural   Ru3Rh
_chemical_formula_sum   'Ru6 Rh2'
_cell_volume   108.67554317
_cell_formula_units_Z   2
loop_
 _symmetry_equiv_pos_site_id
 _symmetry_equiv_pos_as_xyz
  1  'x, y, z'
loop_
 _atom_site_type_symbol
 _atom_site_label
 _atom_site_symmetry_multiplicity
 _atom_site_fract_x
 _atom_site_fract_y
 _atom_site_fract_z
 _atom_site_occupancy
  Ru  Ru0  1  0.16664386  0.33329156  0.25000121  1
  Ru  Ru1  1  0.66671058  0.83335636  0.25000121  1
  Ru  Ru2  1  0.16664421  0.83335344  0.25000338  1
  Ru  Ru3  1  0.83335338  0.66671060  0.75000124  1
  Ru  Ru4  1  0.33329177  0.16664611  0.75000340  1
  Ru  Ru5  1  0.83335364  0.16664472  0.75000340  1
  Rh  Rh6  1  0.33333512  0.66666881  0.74999904  1
  Rh  Rh7  1  0.66666844  0.33333439  0.24999912  1
