# generated using pymatgen
data_CoSi4Ni3
_symmetry_space_group_name_H-M   'P 1'
_cell_length_a   3.25824278
_cell_length_b   5.11720780
_cell_length_c   5.66185141
_cell_angle_alpha   89.85463180
_cell_angle_beta   90.00000000
_cell_angle_gamma   90.00000000
_symmetry_Int_Tables_number   1
_chemical_formula_structural   CoSi4Ni3
_chemical_formula_sum   'Co1 Si4 Ni3'
_cell_volume   94.40034129
_cell_formula_units_Z   1
loop_
 _symmetry_equiv_pos_site_id
 _symmetry_equiv_pos_as_xyz
  1  'x, y, z'
loop_
 _atom_site_type_symbol
 _atom_site_label
 _atom_site_symmetry_multiplicity
 _atom_site_fract_x
 _atom_site_fract_y
 _atom_site_fract_z
 _atom_site_occupancy
  Co  Co0  1  0.00000000  0.50711797  0.69153810  1
  Si  Si1  1  0.00000000  0.67688402  0.07328499  1
  Si  Si2  1  0.00000000  0.18387873  0.42487050  1
  Si  Si3  1  0.50000000  0.32520783  0.91814164  1
  Si  Si4  1  0.50000000  0.81118357  0.58227872  1
  Ni  Ni5  1  0.00000000  0.00846697  0.80970497  1
  Ni  Ni6  1  0.50000000  0.49310050  0.30794025  1
  Ni  Ni7  1  0.50000000  0.99415942  0.19224283  1
