# generated using pymatgen
data_Tb7PtI12
_symmetry_space_group_name_H-M   'P 1'
_cell_length_a   9.72875313
_cell_length_b   9.72875312
_cell_length_c   9.72875400
_cell_angle_alpha   107.43520461
_cell_angle_beta   107.43520461
_cell_angle_gamma   107.43520127
_symmetry_Int_Tables_number   1
_chemical_formula_structural   Tb7PtI12
_chemical_formula_sum   'Tb7 Pt1 I12'
_cell_volume   757.57369025
_cell_formula_units_Z   1
loop_
 _symmetry_equiv_pos_site_id
 _symmetry_equiv_pos_as_xyz
  1  'x, y, z'
loop_
 _atom_site_type_symbol
 _atom_site_label
 _atom_site_symmetry_multiplicity
 _atom_site_fract_x
 _atom_site_fract_y
 _atom_site_fract_z
 _atom_site_occupancy
  Tb  Tb0  1  0.10267705  0.03273071  0.30605351  1
  Tb  Tb1  1  0.30605351  0.10267705  0.03273071  1
  Tb  Tb2  1  0.03273071  0.30605351  0.10267705  1
  Tb  Tb3  1  0.89732295  0.96726929  0.69394649  1
  Tb  Tb4  1  0.69394649  0.89732295  0.96726929  1
  Tb  Tb5  1  0.96726929  0.69394649  0.89732295  1
  Tb  Tb6  1  0.50000000  0.50000000  0.50000000  1
  Pt  Pt7  1  0.00000000  0.00000000  0.00000000  1
  I  I8  1  0.07492927  0.68061090  0.22684259  1
  I  I9  1  0.22684259  0.07492927  0.68061090  1
  I  I10  1  0.68061090  0.22684259  0.07492927  1
  I  I11  1  0.92507073  0.31938910  0.77315741  1
  I  I12  1  0.77315741  0.92507073  0.31938910  1
  I  I13  1  0.31938910  0.77315741  0.92507073  1
  I  I14  1  0.47187411  0.15678908  0.39214193  1
  I  I15  1  0.39214193  0.47187411  0.15678908  1
  I  I16  1  0.15678908  0.39214193  0.47187411  1
  I  I17  1  0.52812589  0.84321092  0.60785807  1
  I  I18  1  0.60785807  0.52812589  0.84321092  1
  I  I19  1  0.84321092  0.60785807  0.52812589  1
