# generated using pymatgen
data_Tb2InCu2
_symmetry_space_group_name_H-M   'P 1'
_cell_length_a   7.46898899
_cell_length_b   7.46898899
_cell_length_c   3.77371780
_cell_angle_alpha   90.00000000
_cell_angle_beta   90.00000000
_cell_angle_gamma   89.99995627
_symmetry_Int_Tables_number   1
_chemical_formula_structural   Tb2InCu2
_chemical_formula_sum   'Tb4 In2 Cu4'
_cell_volume   210.51985336
_cell_formula_units_Z   2
loop_
 _symmetry_equiv_pos_site_id
 _symmetry_equiv_pos_as_xyz
  1  'x, y, z'
loop_
 _atom_site_type_symbol
 _atom_site_label
 _atom_site_symmetry_multiplicity
 _atom_site_fract_x
 _atom_site_fract_y
 _atom_site_fract_z
 _atom_site_occupancy
  Tb  Tb0  1  0.67283182  0.17283182  0.50000000  1
  Tb  Tb1  1  0.32716818  0.82716818  0.50000000  1
  Tb  Tb2  1  0.17282628  0.32717372  0.50000000  1
  Tb  Tb3  1  0.82717372  0.67282628  0.50000000  1
  In  In4  1  0.50000000  0.50000000  0.00000000  1
  In  In5  1  -0.00000000  0.00000000  0.00000000  1
  Cu  Cu6  1  0.11991294  0.61991294  -0.00000000  1
  Cu  Cu7  1  0.88008706  0.38008706  -0.00000000  1
  Cu  Cu8  1  0.61996959  0.88003041  0.00000000  1
  Cu  Cu9  1  0.38003041  0.11996959  0.00000000  1
