# generated using pymatgen
data_In(GaAu)2
_symmetry_space_group_name_H-M   'P 1'
_cell_length_a   4.23922405
_cell_length_b   4.23922405
_cell_length_c   12.99174073
_cell_angle_alpha   90.00000000
_cell_angle_beta   90.00000000
_cell_angle_gamma   119.99999335
_symmetry_Int_Tables_number   1
_chemical_formula_structural   In(GaAu)2
_chemical_formula_sum   'In2 Ga4 Au4'
_cell_volume   202.19515615
_cell_formula_units_Z   2
loop_
 _symmetry_equiv_pos_site_id
 _symmetry_equiv_pos_as_xyz
  1  'x, y, z'
loop_
 _atom_site_type_symbol
 _atom_site_label
 _atom_site_symmetry_multiplicity
 _atom_site_fract_x
 _atom_site_fract_y
 _atom_site_fract_z
 _atom_site_occupancy
  In  In0  1  -0.00000000  -0.00000000  0.25000000  1
  In  In1  1  -0.00000000  -0.00000000  0.75000000  1
  Ga  Ga2  1  0.33333300  0.66666700  0.93602833  1
  Ga  Ga3  1  0.66666700  0.33333300  0.06397167  1
  Ga  Ga4  1  0.66666700  0.33333300  0.43602833  1
  Ga  Ga5  1  0.33333300  0.66666700  0.56397167  1
  Au  Au6  1  0.33333300  0.66666700  0.36244785  1
  Au  Au7  1  0.66666700  0.33333300  0.63755215  1
  Au  Au8  1  0.66666700  0.33333300  0.86244785  1
  Au  Au9  1  0.33333300  0.66666700  0.13755215  1
