# generated using pymatgen
data_LaTeAs
_symmetry_space_group_name_H-M   'P 1'
_cell_length_a   4.20031510
_cell_length_b   7.93278870
_cell_length_c   10.40206809
_cell_angle_alpha   90.00000000
_cell_angle_beta   90.00000000
_cell_angle_gamma   90.00000000
_symmetry_Int_Tables_number   1
_chemical_formula_structural   LaTeAs
_chemical_formula_sum   'La4 Te4 As4'
_cell_volume   346.59911568
_cell_formula_units_Z   4
loop_
 _symmetry_equiv_pos_site_id
 _symmetry_equiv_pos_as_xyz
  1  'x, y, z'
loop_
 _atom_site_type_symbol
 _atom_site_label
 _atom_site_symmetry_multiplicity
 _atom_site_fract_x
 _atom_site_fract_y
 _atom_site_fract_z
 _atom_site_occupancy
  La  La0  1  0.25000000  0.72335487  0.15566337  1
  La  La1  1  0.75000000  0.27664513  0.84433663  1
  La  La2  1  0.25000000  0.22335487  0.34433663  1
  La  La3  1  0.75000000  0.77664513  0.65566337  1
  Te  Te4  1  0.25000000  0.09250341  0.65155984  1
  Te  Te5  1  0.75000000  0.40749659  0.15155984  1
  Te  Te6  1  0.25000000  0.59250341  0.84844016  1
  Te  Te7  1  0.75000000  0.90749659  0.34844016  1
  As  As8  1  0.75000000  0.41288929  0.53843395  1
  As  As9  1  0.25000000  0.08711071  0.03843395  1
  As  As10  1  0.75000000  0.91288929  0.96156605  1
  As  As11  1  0.25000000  0.58711071  0.46156605  1
