# generated using pymatgen
data_Nd2CdNi2
_symmetry_space_group_name_H-M   'P 1'
_cell_length_a   3.80247761
_cell_length_b   7.48703326
_cell_length_c   7.48703326
_cell_angle_alpha   90.00000000
_cell_angle_beta   90.00000000
_cell_angle_gamma   90.00000000
_symmetry_Int_Tables_number   1
_chemical_formula_structural   Nd2CdNi2
_chemical_formula_sum   'Nd4 Cd2 Ni4'
_cell_volume   213.15041882
_cell_formula_units_Z   2
loop_
 _symmetry_equiv_pos_site_id
 _symmetry_equiv_pos_as_xyz
  1  'x, y, z'
loop_
 _atom_site_type_symbol
 _atom_site_label
 _atom_site_symmetry_multiplicity
 _atom_site_fract_x
 _atom_site_fract_y
 _atom_site_fract_z
 _atom_site_occupancy
  Nd  Nd0  1  0.50000000  0.82175110  0.32175110  1
  Nd  Nd1  1  0.50000000  0.67824890  0.82175110  1
  Nd  Nd2  1  0.50000000  0.32175110  0.17824890  1
  Nd  Nd3  1  0.50000000  0.17824890  0.67824890  1
  Cd  Cd4  1  -0.00000000  -0.00000000  0.00000000  1
  Cd  Cd5  1  0.00000000  0.50000000  0.50000000  1
  Ni  Ni6  1  -0.00000000  0.11458789  0.38541211  1
  Ni  Ni7  1  0.00000000  0.38541211  0.88541211  1
  Ni  Ni8  1  -0.00000000  0.61458789  0.11458789  1
  Ni  Ni9  1  0.00000000  0.88541211  0.61458789  1
