# generated using pymatgen
data_K2UF6
_symmetry_space_group_name_H-M   'P 1'
_cell_length_a   7.12893232
_cell_length_b   7.12893232
_cell_length_c   7.12893232
_cell_angle_alpha   146.39996020
_cell_angle_beta   129.51436178
_cell_angle_gamma   62.01810908
_symmetry_Int_Tables_number   1
_chemical_formula_structural   K2UF6
_chemical_formula_sum   'K2 U1 F6'
_cell_volume   153.10082733
_cell_formula_units_Z   1
loop_
 _symmetry_equiv_pos_site_id
 _symmetry_equiv_pos_as_xyz
  1  'x, y, z'
loop_
 _atom_site_type_symbol
 _atom_site_label
 _atom_site_symmetry_multiplicity
 _atom_site_fract_x
 _atom_site_fract_y
 _atom_site_fract_z
 _atom_site_occupancy
  K  K0  1  0.66721584  0.66721584  0.00000000  1
  K  K1  1  0.33278416  0.33278416  0.00000000  1
  U  U2  1  0.00000000  -0.00000000  0.00000000  1
  F  F3  1  0.63225691  0.85891434  0.77334357  1
  F  F4  1  0.20262222  0.50000000  0.70262222  1
  F  F5  1  0.91442923  0.14108566  0.77334357  1
  F  F6  1  0.08557077  0.85891434  0.22665643  1
  F  F7  1  0.79737778  0.50000000  0.29737778  1
  F  F8  1  0.36774309  0.14108566  0.22665643  1
