# generated using pymatgen
data_HgRhF6
_symmetry_space_group_name_H-M   'P 1'
_cell_length_a   5.71049334
_cell_length_b   5.71049167
_cell_length_c   5.71047115
_cell_angle_alpha   53.21212594
_cell_angle_beta   53.21221842
_cell_angle_gamma   53.21199804
_symmetry_Int_Tables_number   1
_chemical_formula_structural   HgRhF6
_chemical_formula_sum   'Hg1 Rh1 F6'
_cell_volume   110.74044951
_cell_formula_units_Z   1
loop_
 _symmetry_equiv_pos_site_id
 _symmetry_equiv_pos_as_xyz
  1  'x, y, z'
loop_
 _atom_site_type_symbol
 _atom_site_label
 _atom_site_symmetry_multiplicity
 _atom_site_fract_x
 _atom_site_fract_y
 _atom_site_fract_z
 _atom_site_occupancy
  Hg  Hg0  1  0.50000000  0.50000000  0.50000000  1
  Rh  Rh1  1  0.00000000  0.00000000  -0.00000000  1
  F  F2  1  0.39454515  0.04636228  0.78959087  1
  F  F3  1  0.04636328  0.78958987  0.39454415  1
  F  F4  1  0.21040913  0.60545385  0.95363972  1
  F  F5  1  0.95363672  0.21041013  0.60545585  1
  F  F6  1  0.60545485  0.95363772  0.21040913  1
  F  F7  1  0.78959087  0.39454615  0.04636028  1
