# generated using pymatgen
data_Yb2Ge
_symmetry_space_group_name_H-M   'P 1'
_cell_length_a   4.26607252
_cell_length_b   7.39235845
_cell_length_c   9.04147515
_cell_angle_alpha   90.00000000
_cell_angle_beta   90.00000000
_cell_angle_gamma   90.00000000
_symmetry_Int_Tables_number   1
_chemical_formula_structural   Yb2Ge
_chemical_formula_sum   'Yb8 Ge4'
_cell_volume   285.13500914
_cell_formula_units_Z   4
loop_
 _symmetry_equiv_pos_site_id
 _symmetry_equiv_pos_as_xyz
  1  'x, y, z'
loop_
 _atom_site_type_symbol
 _atom_site_label
 _atom_site_symmetry_multiplicity
 _atom_site_fract_x
 _atom_site_fract_y
 _atom_site_fract_z
 _atom_site_occupancy
  Yb  Yb0  1  0.75000000  0.86822364  0.06723185  1
  Yb  Yb1  1  0.25000000  0.13177636  0.93276815  1
  Yb  Yb2  1  0.75000000  0.36822364  0.43276815  1
  Yb  Yb3  1  0.25000000  0.63177636  0.56723185  1
  Yb  Yb4  1  0.25000000  0.54339871  0.16892779  1
  Yb  Yb5  1  0.75000000  0.45660129  0.83107221  1
  Yb  Yb6  1  0.25000000  0.04339871  0.33107221  1
  Yb  Yb7  1  0.75000000  0.95660129  0.66892779  1
  Ge  Ge8  1  0.25000000  0.73727107  0.87186896  1
  Ge  Ge9  1  0.75000000  0.26272893  0.12813104  1
  Ge  Ge10  1  0.25000000  0.23727107  0.62813104  1
  Ge  Ge11  1  0.75000000  0.76272893  0.37186896  1
