# generated using pymatgen
data_Tb5Pt3
_symmetry_space_group_name_H-M   'P 1'
_cell_length_a   8.44427619
_cell_length_b   8.44427619
_cell_length_c   6.18502811
_cell_angle_alpha   90.00000000
_cell_angle_beta   90.00000000
_cell_angle_gamma   120.00000385
_symmetry_Int_Tables_number   1
_chemical_formula_structural   Tb5Pt3
_chemical_formula_sum   'Tb10 Pt6'
_cell_volume   381.94176592
_cell_formula_units_Z   2
loop_
 _symmetry_equiv_pos_site_id
 _symmetry_equiv_pos_as_xyz
  1  'x, y, z'
loop_
 _atom_site_type_symbol
 _atom_site_label
 _atom_site_symmetry_multiplicity
 _atom_site_fract_x
 _atom_site_fract_y
 _atom_site_fract_z
 _atom_site_occupancy
  Tb  Tb0  1  0.66666700  0.33333300  -0.00000000  1
  Tb  Tb1  1  0.33333300  0.66666700  -0.00000000  1
  Tb  Tb2  1  0.33333300  0.66666700  0.50000000  1
  Tb  Tb3  1  0.66666700  0.33333300  0.50000000  1
  Tb  Tb4  1  0.75188127  0.75188127  0.75000000  1
  Tb  Tb5  1  0.24811873  0.00000000  0.75000000  1
  Tb  Tb6  1  0.00000000  0.24811873  0.75000000  1
  Tb  Tb7  1  0.24811873  0.24811873  0.25000000  1
  Tb  Tb8  1  0.75188127  -0.00000000  0.25000000  1
  Tb  Tb9  1  -0.00000000  0.75188127  0.25000000  1
  Pt  Pt10  1  0.39310252  0.39310252  0.75000000  1
  Pt  Pt11  1  0.60689748  -0.00000000  0.75000000  1
  Pt  Pt12  1  -0.00000000  0.60689748  0.75000000  1
  Pt  Pt13  1  0.60689748  0.60689748  0.25000000  1
  Pt  Pt14  1  0.39310252  0.00000000  0.25000000  1
  Pt  Pt15  1  0.00000000  0.39310252  0.25000000  1
