# generated using pymatgen
data_K3Sn4Au
_symmetry_space_group_name_H-M   'P 1'
_cell_length_a   6.58506127
_cell_length_b   7.05066591
_cell_length_c   12.55221044
_cell_angle_alpha   90.00000000
_cell_angle_beta   90.00000000
_cell_angle_gamma   90.00000000
_symmetry_Int_Tables_number   1
_chemical_formula_structural   K3Sn4Au
_chemical_formula_sum   'K6 Sn8 Au2'
_cell_volume   582.78741966
_cell_formula_units_Z   2
loop_
 _symmetry_equiv_pos_site_id
 _symmetry_equiv_pos_as_xyz
  1  'x, y, z'
loop_
 _atom_site_type_symbol
 _atom_site_label
 _atom_site_symmetry_multiplicity
 _atom_site_fract_x
 _atom_site_fract_y
 _atom_site_fract_z
 _atom_site_occupancy
  K  K0  1  0.55923250  0.25000000  0.25000000  1
  K  K1  1  0.44076750  0.75000000  0.75000000  1
  K  K2  1  0.83055150  0.75000000  -0.00560908  1
  K  K3  1  0.83055150  0.75000000  0.50560908  1
  K  K4  1  0.16944850  0.25000000  0.00560908  1
  K  K5  1  0.16944850  0.25000000  0.49439092  1
  Sn  Sn6  1  0.33126014  0.75000000  0.12581983  1
  Sn  Sn7  1  0.33126014  0.75000000  0.37418017  1
  Sn  Sn8  1  0.03715462  0.52792476  0.25000000  1
  Sn  Sn9  1  0.03715462  0.97207524  0.25000000  1
  Sn  Sn10  1  0.96284538  0.02792476  0.75000000  1
  Sn  Sn11  1  0.96284538  0.47207524  0.75000000  1
  Sn  Sn12  1  0.66873986  0.25000000  0.62581983  1
  Sn  Sn13  1  0.66873986  0.25000000  0.87418017  1
  Au  Au14  1  0.68359722  0.75000000  0.25000000  1
  Au  Au15  1  0.31640278  0.25000000  0.75000000  1
