# generated using pymatgen
data_Th2CN
_symmetry_space_group_name_H-M   'P 1'
_cell_length_a   6.43676212
_cell_length_b   6.43676212
_cell_length_c   6.43676152
_cell_angle_alpha   33.82137489
_cell_angle_beta   33.82137489
_cell_angle_gamma   33.82137655
_symmetry_Int_Tables_number   1
_chemical_formula_structural   Th2CN
_chemical_formula_sum   'Th2 C1 N1'
_cell_volume   73.62574021
_cell_formula_units_Z   1
loop_
 _symmetry_equiv_pos_site_id
 _symmetry_equiv_pos_as_xyz
  1  'x, y, z'
loop_
 _atom_site_type_symbol
 _atom_site_label
 _atom_site_symmetry_multiplicity
 _atom_site_fract_x
 _atom_site_fract_y
 _atom_site_fract_z
 _atom_site_occupancy
  Th  Th0  1  0.24966241  0.24966241  0.24966241  1
  Th  Th1  1  0.75033759  0.75033759  0.75033759  1
  C  C2  1  -0.00000000  -0.00000000  0.00000000  1
  N  N3  1  0.50000000  0.50000000  0.50000000  1
