# generated using pymatgen
data_Tl2NiF4
_symmetry_space_group_name_H-M   'P 1'
_cell_length_a   7.51120997
_cell_length_b   7.51120997
_cell_length_c   7.51120997
_cell_angle_alpha   148.70563648
_cell_angle_beta   148.70563648
_cell_angle_gamma   44.84477508
_symmetry_Int_Tables_number   1
_chemical_formula_structural   Tl2NiF4
_chemical_formula_sum   'Tl2 Ni1 F4'
_cell_volume   113.98602332
_cell_formula_units_Z   1
loop_
 _symmetry_equiv_pos_site_id
 _symmetry_equiv_pos_as_xyz
  1  'x, y, z'
loop_
 _atom_site_type_symbol
 _atom_site_label
 _atom_site_symmetry_multiplicity
 _atom_site_fract_x
 _atom_site_fract_y
 _atom_site_fract_z
 _atom_site_occupancy
  Tl  Tl0  1  0.35042292  0.35042292  0.00000000  1
  Tl  Tl1  1  0.64957708  0.64957708  -0.00000000  1
  Ni  Ni2  1  -0.00000000  -0.00000000  -0.00000000  1
  F  F3  1  0.14268283  0.14268283  0.00000000  1
  F  F4  1  0.85731717  0.85731717  -0.00000000  1
  F  F5  1  0.50000000  -0.00000000  0.50000000  1
  F  F6  1  -0.00000000  0.50000000  0.50000000  1
