# generated using pymatgen
data_SrCaGe
_symmetry_space_group_name_H-M   'P 1'
_cell_length_a   4.96051765
_cell_length_b   8.11107846
_cell_length_c   9.12426437
_cell_angle_alpha   90.00000000
_cell_angle_beta   90.00000000
_cell_angle_gamma   90.00000000
_symmetry_Int_Tables_number   1
_chemical_formula_structural   SrCaGe
_chemical_formula_sum   'Sr4 Ca4 Ge4'
_cell_volume   367.11612605
_cell_formula_units_Z   4
loop_
 _symmetry_equiv_pos_site_id
 _symmetry_equiv_pos_as_xyz
  1  'x, y, z'
loop_
 _atom_site_type_symbol
 _atom_site_label
 _atom_site_symmetry_multiplicity
 _atom_site_fract_x
 _atom_site_fract_y
 _atom_site_fract_z
 _atom_site_occupancy
  Sr  Sr0  1  0.25000000  0.52056731  0.82045676  1
  Sr  Sr1  1  0.25000000  0.02056731  0.67954324  1
  Sr  Sr2  1  0.75000000  0.97943269  0.32045676  1
  Sr  Sr3  1  0.75000000  0.47943269  0.17954324  1
  Ca  Ca4  1  0.75000000  0.85165635  0.92504974  1
  Ca  Ca5  1  0.25000000  0.14834365  0.07495026  1
  Ca  Ca6  1  0.75000000  0.35165635  0.57495026  1
  Ca  Ca7  1  0.25000000  0.64834365  0.42504974  1
  Ge  Ge8  1  0.75000000  0.23255786  0.89593838  1
  Ge  Ge9  1  0.25000000  0.26744214  0.39593838  1
  Ge  Ge10  1  0.25000000  0.76744214  0.10406162  1
  Ge  Ge11  1  0.75000000  0.73255786  0.60406162  1
