# generated using pymatgen
data_Tm3Ge3Ru2
_symmetry_space_group_name_H-M   'P 1'
_cell_length_a   5.72922587
_cell_length_b   5.72922587
_cell_length_c   13.72907182
_cell_angle_alpha   89.99975147
_cell_angle_beta   90.00024853
_cell_angle_gamma   136.83899753
_symmetry_Int_Tables_number   1
_chemical_formula_structural   Tm3Ge3Ru2
_chemical_formula_sum   'Tm6 Ge6 Ru4'
_cell_volume   308.26300758
_cell_formula_units_Z   2
loop_
 _symmetry_equiv_pos_site_id
 _symmetry_equiv_pos_as_xyz
  1  'x, y, z'
loop_
 _atom_site_type_symbol
 _atom_site_label
 _atom_site_symmetry_multiplicity
 _atom_site_fract_x
 _atom_site_fract_y
 _atom_site_fract_z
 _atom_site_occupancy
  Tm  Tm0  1  0.92153966  0.07846034  0.38726928  1
  Tm  Tm1  1  0.07846170  0.92153830  0.61273471  1
  Tm  Tm2  1  0.92153512  0.07846488  0.11274500  1
  Tm  Tm3  1  0.07847060  0.92152940  0.88724833  1
  Tm  Tm4  1  0.64799465  0.35200535  0.25001366  1
  Tm  Tm5  1  0.35200248  0.64799752  0.74998998  1
  Ge  Ge6  1  0.61521118  0.38478882  0.45933326  1
  Ge  Ge7  1  0.38478291  0.61521709  0.54070100  1
  Ge  Ge8  1  0.61520431  0.38479569  0.04067703  1
  Ge  Ge9  1  0.38479045  0.61520955  0.95928966  1
  Ge  Ge10  1  0.33815207  0.66184793  0.25001871  1
  Ge  Ge11  1  0.66185106  0.33814894  0.74998038  1
  Ru  Ru12  1  0.78713539  0.21286461  0.91735262  1
  Ru  Ru13  1  0.21286698  0.78713302  0.08262715  1
  Ru  Ru14  1  0.78713677  0.21286323  0.58262860  1
  Ru  Ru15  1  0.21286566  0.78713434  0.41738762  1
