# generated using pymatgen
data_DyAlPd
_symmetry_space_group_name_H-M   'P 1'
_cell_length_a   4.42942333
_cell_length_b   6.88390447
_cell_length_c   7.73064367
_cell_angle_alpha   90.00000000
_cell_angle_beta   90.00000000
_cell_angle_gamma   90.00000000
_symmetry_Int_Tables_number   1
_chemical_formula_structural   DyAlPd
_chemical_formula_sum   'Dy4 Al4 Pd4'
_cell_volume   235.72067679
_cell_formula_units_Z   4
loop_
 _symmetry_equiv_pos_site_id
 _symmetry_equiv_pos_as_xyz
  1  'x, y, z'
loop_
 _atom_site_type_symbol
 _atom_site_label
 _atom_site_symmetry_multiplicity
 _atom_site_fract_x
 _atom_site_fract_y
 _atom_site_fract_z
 _atom_site_occupancy
  Dy  Dy0  1  0.75000000  0.46633060  0.17892829  1
  Dy  Dy1  1  0.75000000  0.96633060  0.32107171  1
  Dy  Dy2  1  0.25000000  0.53366940  0.82107171  1
  Dy  Dy3  1  0.25000000  0.03366940  0.67892829  1
  Al  Al4  1  0.75000000  0.35779229  0.56147863  1
  Al  Al5  1  0.75000000  0.85779229  0.93852137  1
  Al  Al6  1  0.25000000  0.64220771  0.43852137  1
  Al  Al7  1  0.25000000  0.14220771  0.06147863  1
  Pd  Pd8  1  0.75000000  0.22762195  0.88010376  1
  Pd  Pd9  1  0.75000000  0.72762195  0.61989624  1
  Pd  Pd10  1  0.25000000  0.77237805  0.11989624  1
  Pd  Pd11  1  0.25000000  0.27237805  0.38010376  1
