# generated using pymatgen
data_ZnAg
_symmetry_space_group_name_H-M   'P 1'
_cell_length_a   2.87226409
_cell_length_b   2.87224772
_cell_length_c   4.41764707
_cell_angle_alpha   89.67386938
_cell_angle_beta   90.32615739
_cell_angle_gamma   119.99038361
_symmetry_Int_Tables_number   1
_chemical_formula_structural   ZnAg
_chemical_formula_sum   'Zn1 Ag1'
_cell_volume   31.56462285
_cell_formula_units_Z   1
loop_
 _symmetry_equiv_pos_site_id
 _symmetry_equiv_pos_as_xyz
  1  'x, y, z'
loop_
 _atom_site_type_symbol
 _atom_site_label
 _atom_site_symmetry_multiplicity
 _atom_site_fract_x
 _atom_site_fract_y
 _atom_site_fract_z
 _atom_site_occupancy
  Zn  Zn0  1  0.33332127  0.66667473  0.24999943  1
  Ag  Ag1  1  0.66667673  0.33332327  0.75000157  1
