# generated using pymatgen
data_In4Se3
_symmetry_space_group_name_H-M   'P 1'
_cell_length_a   4.11451074
_cell_length_b   12.48540012
_cell_length_c   15.57927383
_cell_angle_alpha   90.00000000
_cell_angle_beta   90.00000000
_cell_angle_gamma   90.00000000
_symmetry_Int_Tables_number   1
_chemical_formula_structural   In4Se3
_chemical_formula_sum   'In16 Se12'
_cell_volume   800.32775047
_cell_formula_units_Z   4
loop_
 _symmetry_equiv_pos_site_id
 _symmetry_equiv_pos_as_xyz
  1  'x, y, z'
loop_
 _atom_site_type_symbol
 _atom_site_label
 _atom_site_symmetry_multiplicity
 _atom_site_fract_x
 _atom_site_fract_y
 _atom_site_fract_z
 _atom_site_occupancy
  In  In0  1  -0.00000000  0.60692792  0.57533621  1
  In  In1  1  0.00000000  0.39307208  0.42466379  1
  In  In2  1  0.50000000  0.10692792  0.92466379  1
  In  In3  1  0.50000000  0.89307208  0.07533621  1
  In  In4  1  0.50000000  0.14388369  0.53606891  1
  In  In5  1  0.50000000  0.85611631  0.46393109  1
  In  In6  1  -0.00000000  0.64388369  0.96393109  1
  In  In7  1  0.00000000  0.35611631  0.03606891  1
  In  In8  1  0.50000000  0.02629014  0.68795186  1
  In  In9  1  0.50000000  0.97370986  0.31204814  1
  In  In10  1  0.00000000  0.52629014  0.81204814  1
  In  In11  1  -0.00000000  0.47370986  0.18795186  1
  In  In12  1  0.50000000  0.83969178  0.78924978  1
  In  In13  1  0.50000000  0.16030822  0.21075022  1
  In  In14  1  -0.00000000  0.33969178  0.71075022  1
  In  In15  1  -0.00000000  0.66030822  0.28924978  1
  Se  Se16  1  0.50000000  0.65701676  0.07071380  1
  Se  Se17  1  0.50000000  0.34298324  0.92928620  1
  Se  Se18  1  0.00000000  0.15701676  0.42928620  1
  Se  Se19  1  0.00000000  0.84298324  0.57071380  1
  Se  Se20  1  0.50000000  0.64009080  0.72949727  1
  Se  Se21  1  0.50000000  0.35990920  0.27050273  1
  Se  Se22  1  0.00000000  0.14009080  0.77050273  1
  Se  Se23  1  0.00000000  0.85990920  0.22949727  1
  Se  Se24  1  0.50000000  0.34721112  0.59877411  1
  Se  Se25  1  0.50000000  0.65278888  0.40122589  1
  Se  Se26  1  0.00000000  0.84721112  0.90122589  1
  Se  Se27  1  0.00000000  0.15278888  0.09877311  1
