# generated using pymatgen
data_LaNi3Rh2
_symmetry_space_group_name_H-M   'P 1'
_cell_length_a   5.07538117
_cell_length_b   5.07538064
_cell_length_c   3.98705639
_cell_angle_alpha   90.00000000
_cell_angle_beta   90.00000000
_cell_angle_gamma   116.88844450
_symmetry_Int_Tables_number   1
_chemical_formula_structural   LaNi3Rh2
_chemical_formula_sum   'La1 Ni3 Rh2'
_cell_volume   91.60102877
_cell_formula_units_Z   1
loop_
 _symmetry_equiv_pos_site_id
 _symmetry_equiv_pos_as_xyz
  1  'x, y, z'
loop_
 _atom_site_type_symbol
 _atom_site_label
 _atom_site_symmetry_multiplicity
 _atom_site_fract_x
 _atom_site_fract_y
 _atom_site_fract_z
 _atom_site_occupancy
  La  La0  1  0.50000000  0.50000000  0.00000000  1
  Ni  Ni1  1  0.15585777  0.84414223  -0.00000000  1
  Ni  Ni2  1  0.84414223  0.15585777  0.00000000  1
  Ni  Ni3  1  -0.00000000  -0.00000000  0.50000000  1
  Rh  Rh4  1  -0.00000000  0.50000000  0.50000000  1
  Rh  Rh5  1  0.50000000  -0.00000000  0.50000000  1
