# generated using pymatgen
data_Yb2C(NO)2
_symmetry_space_group_name_H-M   'P 1'
_cell_length_a   3.61039654
_cell_length_b   3.61039654
_cell_length_c   8.07071241
_cell_angle_alpha   90.00000000
_cell_angle_beta   90.00000000
_cell_angle_gamma   120.00000112
_symmetry_Int_Tables_number   1
_chemical_formula_structural   Yb2C(NO)2
_chemical_formula_sum   'Yb2 C1 N2 O2'
_cell_volume   91.10711778
_cell_formula_units_Z   1
loop_
 _symmetry_equiv_pos_site_id
 _symmetry_equiv_pos_as_xyz
  1  'x, y, z'
loop_
 _atom_site_type_symbol
 _atom_site_label
 _atom_site_symmetry_multiplicity
 _atom_site_fract_x
 _atom_site_fract_y
 _atom_site_fract_z
 _atom_site_occupancy
  Yb  Yb0  1  0.66666700  0.33333300  0.82475300  1
  Yb  Yb1  1  0.33333300  0.66666700  0.17524700  1
  C  C2  1  0.00000000  0.00000000  0.50000000  1
  N  N3  1  0.00000000  0.00000000  0.65222595  1
  N  N4  1  0.00000000  0.00000000  0.34777405  1
  O  O5  1  0.33333300  0.66666700  0.89764409  1
  O  O6  1  0.66666700  0.33333300  0.10235591  1
