# generated using pymatgen
data_YbSbIr
_symmetry_space_group_name_H-M   'P 1'
_cell_length_a   4.48096904
_cell_length_b   7.04437584
_cell_length_c   7.79780906
_cell_angle_alpha   90.00000000
_cell_angle_beta   90.00000000
_cell_angle_gamma   90.00000000
_symmetry_Int_Tables_number   1
_chemical_formula_structural   YbSbIr
_chemical_formula_sum   'Yb4 Sb4 Ir4'
_cell_volume   246.14275581
_cell_formula_units_Z   4
loop_
 _symmetry_equiv_pos_site_id
 _symmetry_equiv_pos_as_xyz
  1  'x, y, z'
loop_
 _atom_site_type_symbol
 _atom_site_label
 _atom_site_symmetry_multiplicity
 _atom_site_fract_x
 _atom_site_fract_y
 _atom_site_fract_z
 _atom_site_occupancy
  Yb  Yb0  1  0.25000000  0.01115368  0.30714302  1
  Yb  Yb1  1  0.25000000  0.51115368  0.19285698  1
  Yb  Yb2  1  0.75000000  0.98884632  0.69285698  1
  Yb  Yb3  1  0.75000000  0.48884632  0.80714302  1
  Sb  Sb4  1  0.25000000  0.67884096  0.58945129  1
  Sb  Sb5  1  0.25000000  0.17884096  0.91054871  1
  Sb  Sb6  1  0.75000000  0.32115904  0.41054871  1
  Sb  Sb7  1  0.75000000  0.82115904  0.08945129  1
  Ir  Ir8  1  0.25000000  0.28893989  0.58603634  1
  Ir  Ir9  1  0.25000000  0.78893989  0.91396366  1
  Ir  Ir10  1  0.75000000  0.71106011  0.41396366  1
  Ir  Ir11  1  0.75000000  0.21106011  0.08603634  1
