# generated using pymatgen
data_CeAlAu
_symmetry_space_group_name_H-M   'P 1'
_cell_length_a   4.59351148
_cell_length_b   7.57406123
_cell_length_c   7.72478342
_cell_angle_alpha   89.98864079
_cell_angle_beta   90.00000659
_cell_angle_gamma   89.99999818
_symmetry_Int_Tables_number   1
_chemical_formula_structural   CeAlAu
_chemical_formula_sum   'Ce4 Al4 Au4'
_cell_volume   268.75708431
_cell_formula_units_Z   4
loop_
 _symmetry_equiv_pos_site_id
 _symmetry_equiv_pos_as_xyz
  1  'x, y, z'
loop_
 _atom_site_type_symbol
 _atom_site_label
 _atom_site_symmetry_multiplicity
 _atom_site_fract_x
 _atom_site_fract_y
 _atom_site_fract_z
 _atom_site_occupancy
  Ce  Ce0  1  0.74999958  0.49013025  0.19450926  1
  Ce  Ce1  1  0.75000010  0.99013570  0.30535433  1
  Ce  Ce2  1  0.25000010  0.50982317  0.80550419  1
  Ce  Ce3  1  0.25000003  0.00989221  0.69457813  1
  Al  Al4  1  0.75000005  0.32881461  0.58134983  1
  Al  Al5  1  0.75000033  0.82868969  0.91861543  1
  Al  Al6  1  0.24999985  0.67118499  0.41865106  1
  Al  Al7  1  0.24999986  0.17132256  0.08138405  1
  Au  Au8  1  0.75000009  0.20203330  0.90846127  1
  Au  Au9  1  0.75000004  0.70179451  0.59155928  1
  Au  Au10  1  0.24999996  0.79800980  0.09164290  1
  Au  Au11  1  0.25000000  0.29816920  0.40839028  1
