# generated using pymatgen
data_NdPO4
_symmetry_space_group_name_H-M   'P 1'
_cell_length_a   7.11355540
_cell_length_b   7.11355365
_cell_length_c   6.35113757
_cell_angle_alpha   90.00000000
_cell_angle_beta   90.00000000
_cell_angle_gamma   119.99999409
_symmetry_Int_Tables_number   1
_chemical_formula_structural   NdPO4
_chemical_formula_sum   'Nd3 P3 O12'
_cell_volume   278.32710798
_cell_formula_units_Z   3
loop_
 _symmetry_equiv_pos_site_id
 _symmetry_equiv_pos_as_xyz
  1  'x, y, z'
loop_
 _atom_site_type_symbol
 _atom_site_label
 _atom_site_symmetry_multiplicity
 _atom_site_fract_x
 _atom_site_fract_y
 _atom_site_fract_z
 _atom_site_occupancy
  Nd  Nd0  1  -0.00000000  0.50000000  0.66666700  1
  Nd  Nd1  1  0.50000000  0.50000000  0.33333300  1
  Nd  Nd2  1  0.50000000  -0.00000000  -0.00000000  1
  P  P3  1  -0.00000000  0.50000000  0.16666700  1
  P  P4  1  0.50000000  0.50000000  0.83333300  1
  P  P5  1  0.50000000  -0.00000000  0.50000000  1
  O  O6  1  0.44635226  0.30942347  0.98166573  1
  O  O7  1  0.69057653  0.13692979  0.64833273  1
  O  O8  1  0.86307021  0.55364774  0.31499873  1
  O  O9  1  0.13692979  0.44635226  0.31499873  1
  O  O10  1  0.55364774  0.86307021  0.35166727  1
  O  O11  1  0.55364774  0.69057653  0.98166573  1
  O  O12  1  0.44635226  0.13692979  0.35166727  1
  O  O13  1  0.30942347  0.44635226  0.68500127  1
  O  O14  1  0.13692979  0.69057653  0.01833427  1
  O  O15  1  0.86307021  0.30942347  0.01833427  1
  O  O16  1  0.69057653  0.55364774  0.68500127  1
  O  O17  1  0.30942347  0.86307021  0.64833273  1
