# generated using pymatgen
data_Co3Ni
_symmetry_space_group_name_H-M   'P 1'
_cell_length_a   2.46698607
_cell_length_b   2.46698607
_cell_length_c   8.06367634
_cell_angle_alpha   90.00000000
_cell_angle_beta   90.00000000
_cell_angle_gamma   120.00001213
_symmetry_Int_Tables_number   1
_chemical_formula_structural   Co3Ni
_chemical_formula_sum   'Co3 Ni1'
_cell_volume   42.50079576
_cell_formula_units_Z   1
loop_
 _symmetry_equiv_pos_site_id
 _symmetry_equiv_pos_as_xyz
  1  'x, y, z'
loop_
 _atom_site_type_symbol
 _atom_site_label
 _atom_site_symmetry_multiplicity
 _atom_site_fract_x
 _atom_site_fract_y
 _atom_site_fract_z
 _atom_site_occupancy
  Co  Co0  1  0.33333300  0.66666700  0.49997669  1
  Co  Co1  1  -0.00000000  -0.00000000  0.25102268  1
  Co  Co2  1  -0.00000000  0.00000000  0.74896195  1
  Ni  Ni3  1  0.33333300  0.66666700  0.00003969  1
