# generated using pymatgen
data_Lu2Al3Fe
_symmetry_space_group_name_H-M   'P 1'
_cell_length_a   5.32123967
_cell_length_b   5.32122868
_cell_length_c   5.32119625
_cell_angle_alpha   61.42603659
_cell_angle_beta   61.42608071
_cell_angle_gamma   61.42615478
_symmetry_Int_Tables_number   1
_chemical_formula_structural   Lu2Al3Fe
_chemical_formula_sum   'Lu2 Al3 Fe1'
_cell_volume   109.95393168
_cell_formula_units_Z   1
loop_
 _symmetry_equiv_pos_site_id
 _symmetry_equiv_pos_as_xyz
  1  'x, y, z'
loop_
 _atom_site_type_symbol
 _atom_site_label
 _atom_site_symmetry_multiplicity
 _atom_site_fract_x
 _atom_site_fract_y
 _atom_site_fract_z
 _atom_site_occupancy
  Lu  Lu0  1  0.62629855  0.62629365  0.62628495  1
  Lu  Lu1  1  0.37370145  0.37370635  0.37371505  1
  Al  Al2  1  -0.00000000  0.50000000  -0.00000000  1
  Al  Al3  1  0.50000000  0.00000000  -0.00000000  1
  Al  Al4  1  -0.00000000  0.00000000  0.50000000  1
  Fe  Fe5  1  -0.00000000  0.00000000  -0.00000000  1
