# generated using pymatgen
data_Nd2GaNi2
_symmetry_space_group_name_H-M   'P 1'
_cell_length_a   5.47390750
_cell_length_b   5.47390750
_cell_length_c   5.47390750
_cell_angle_alpha   134.22457710
_cell_angle_beta   120.81506315
_cell_angle_gamma   77.89281205
_symmetry_Int_Tables_number   1
_chemical_formula_structural   Nd2GaNi2
_chemical_formula_sum   'Nd2 Ga1 Ni2'
_cell_volume   98.00005422
_cell_formula_units_Z   1
loop_
 _symmetry_equiv_pos_site_id
 _symmetry_equiv_pos_as_xyz
  1  'x, y, z'
loop_
 _atom_site_type_symbol
 _atom_site_label
 _atom_site_symmetry_multiplicity
 _atom_site_fract_x
 _atom_site_fract_y
 _atom_site_fract_z
 _atom_site_occupancy
  Nd  Nd0  1  0.29964623  0.79964623  0.50000000  1
  Nd  Nd1  1  0.70035377  0.20035377  0.50000000  1
  Ga  Ga2  1  -0.00000000  -0.00000000  -0.00000000  1
  Ni  Ni3  1  0.73890691  0.50000000  0.23890691  1
  Ni  Ni4  1  0.26109309  0.50000000  0.76109309  1
