# generated using pymatgen
data_Ca5(GaAs3)2
_symmetry_space_group_name_H-M   'P 1'
_cell_length_a   4.14725976
_cell_length_b   11.39558440
_cell_length_c   13.18117049
_cell_angle_alpha   90.00000000
_cell_angle_beta   90.00000000
_cell_angle_gamma   90.00000000
_symmetry_Int_Tables_number   1
_chemical_formula_structural   Ca5(GaAs3)2
_chemical_formula_sum   'Ca10 Ga4 As12'
_cell_volume   622.94803074
_cell_formula_units_Z   2
loop_
 _symmetry_equiv_pos_site_id
 _symmetry_equiv_pos_as_xyz
  1  'x, y, z'
loop_
 _atom_site_type_symbol
 _atom_site_label
 _atom_site_symmetry_multiplicity
 _atom_site_fract_x
 _atom_site_fract_y
 _atom_site_fract_z
 _atom_site_occupancy
  Ca  Ca0  1  0.50000000  0.08875647  0.75164636  1
  Ca  Ca1  1  0.50000000  0.58875647  0.74835364  1
  Ca  Ca2  1  0.50000000  0.32516919  0.51460459  1
  Ca  Ca3  1  0.50000000  0.67483081  0.48539541  1
  Ca  Ca4  1  0.50000000  0.82516919  0.98539541  1
  Ca  Ca5  1  0.50000000  0.91124353  0.24835364  1
  Ca  Ca6  1  0.50000000  0.17483081  0.01460459  1
  Ca  Ca7  1  0.50000000  0.50000000  0.00000000  1
  Ca  Ca8  1  0.50000000  -0.00000000  0.50000000  1
  Ca  Ca9  1  0.50000000  0.41124353  0.25164636  1
  Ga  Ga10  1  -0.00000000  0.82766018  0.78764255  1
  Ga  Ga11  1  0.00000000  0.17233982  0.21235745  1
  Ga  Ga12  1  -0.00000000  0.67233982  0.28764255  1
  Ga  Ga13  1  0.00000000  0.32766018  0.71235745  1
  As  As14  1  0.50000000  0.83862909  0.68127857  1
  As  As15  1  0.00000000  0.48081323  0.40672114  1
  As  As16  1  0.50000000  0.16137091  0.31872143  1
  As  As17  1  -0.00000000  0.01918677  0.90672114  1
  As  As18  1  0.00000000  0.84373704  0.40258342  1
  As  As19  1  0.00000000  0.98081323  0.09327886  1
  As  As20  1  0.00000000  0.34373704  0.09741658  1
  As  As21  1  0.00000000  0.51918677  0.59327886  1
  As  As22  1  0.00000000  0.15626296  0.59741658  1
  As  As23  1  0.00000000  0.65626296  0.90258342  1
  As  As24  1  0.50000000  0.66137091  0.18127857  1
  As  As25  1  0.50000000  0.33862909  0.81872143  1
