# generated using pymatgen
data_Yb(LuSe2)2
_symmetry_space_group_name_H-M   'P 1'
_cell_length_a   3.97382404
_cell_length_b   6.80938949
_cell_length_c   6.82611335
_cell_angle_alpha   71.59222528
_cell_angle_beta   90.00000000
_cell_angle_gamma   90.00000000
_symmetry_Int_Tables_number   1
_chemical_formula_structural   Yb(LuSe2)2
_chemical_formula_sum   'Yb1 Lu2 Se4'
_cell_volume   175.25893325
_cell_formula_units_Z   1
loop_
 _symmetry_equiv_pos_site_id
 _symmetry_equiv_pos_as_xyz
  1  'x, y, z'
loop_
 _atom_site_type_symbol
 _atom_site_label
 _atom_site_symmetry_multiplicity
 _atom_site_fract_x
 _atom_site_fract_y
 _atom_site_fract_z
 _atom_site_occupancy
  Yb  Yb0  1  0.00000000  0.50000000  0.50000000  1
  Lu  Lu1  1  0.00000000  0.00000000  0.00000000  1
  Lu  Lu2  1  0.50000000  0.50000000  0.00000000  1
  Se  Se3  1  0.50000000  0.75581532  0.25399725  1
  Se  Se4  1  0.00000000  0.25333228  0.24535157  1
  Se  Se5  1  0.50000000  0.24418468  0.74600275  1
  Se  Se6  1  0.00000000  0.74666772  0.75464843  1
