# generated using pymatgen
data_SrSn
_symmetry_space_group_name_H-M   'P 1'
_cell_length_a   4.55719316
_cell_length_b   5.09035678
_cell_length_c   6.54381424
_cell_angle_alpha   112.88882888
_cell_angle_beta   90.00000000
_cell_angle_gamma   90.00000000
_symmetry_Int_Tables_number   1
_chemical_formula_structural   SrSn
_chemical_formula_sum   'Sr2 Sn2'
_cell_volume   139.84902054
_cell_formula_units_Z   2
loop_
 _symmetry_equiv_pos_site_id
 _symmetry_equiv_pos_as_xyz
  1  'x, y, z'
loop_
 _atom_site_type_symbol
 _atom_site_label
 _atom_site_symmetry_multiplicity
 _atom_site_fract_x
 _atom_site_fract_y
 _atom_site_fract_z
 _atom_site_occupancy
  Sr  Sr0  1  0.25000000  0.86517188  0.73034376  1
  Sr  Sr1  1  0.75000000  0.13482812  0.26965624  1
  Sn  Sn2  1  0.25000000  0.57839355  0.15678710  1
  Sn  Sn3  1  0.75000000  0.42160645  0.84321290  1
