# generated using pymatgen
data_NaBH4
_symmetry_space_group_name_H-M   'P 1'
_cell_length_a   4.31911791
_cell_length_b   4.31911791
_cell_length_c   5.75694293
_cell_angle_alpha   90.00000000
_cell_angle_beta   90.00000000
_cell_angle_gamma   90.00000000
_symmetry_Int_Tables_number   1
_chemical_formula_structural   NaBH4
_chemical_formula_sum   'Na2 B2 H8'
_cell_volume   107.39450107
_cell_formula_units_Z   2
loop_
 _symmetry_equiv_pos_site_id
 _symmetry_equiv_pos_as_xyz
  1  'x, y, z'
loop_
 _atom_site_type_symbol
 _atom_site_label
 _atom_site_symmetry_multiplicity
 _atom_site_fract_x
 _atom_site_fract_y
 _atom_site_fract_z
 _atom_site_occupancy
  Na  Na0  1  0.50000000  0.50000000  0.50000000  1
  Na  Na1  1  -0.00000000  0.00000000  -0.00000000  1
  B  B2  1  0.50000000  0.50000000  -0.00000000  1
  B  B3  1  -0.00000000  0.00000000  0.50000000  1
  H  H4  1  0.26951004  0.51899808  0.87840287  1
  H  H5  1  0.76951004  0.98100192  0.62159713  1
  H  H6  1  0.73048996  0.48100192  0.87840287  1
  H  H7  1  0.23048996  0.01899808  0.62159713  1
  H  H8  1  0.51899808  0.73048996  0.12159713  1
  H  H9  1  0.98100192  0.23048996  0.37840287  1
  H  H10  1  0.48100192  0.26951004  0.12159713  1
  H  H11  1  0.01899808  0.76951004  0.37840287  1
