# generated using pymatgen
data_HfTaC2
_symmetry_space_group_name_H-M   'P 1'
_cell_length_a   5.57507641
_cell_length_b   5.57507641
_cell_length_c   5.57507566
_cell_angle_alpha   33.43108941
_cell_angle_beta   33.43108941
_cell_angle_gamma   33.43108029
_symmetry_Int_Tables_number   1
_chemical_formula_structural   HfTaC2
_chemical_formula_sum   'Hf1 Ta1 C2'
_cell_volume   46.83859876
_cell_formula_units_Z   1
loop_
 _symmetry_equiv_pos_site_id
 _symmetry_equiv_pos_as_xyz
  1  'x, y, z'
loop_
 _atom_site_type_symbol
 _atom_site_label
 _atom_site_symmetry_multiplicity
 _atom_site_fract_x
 _atom_site_fract_y
 _atom_site_fract_z
 _atom_site_occupancy
  Hf  Hf0  1  0.00000000  0.00000000  -0.00000000  1
  Ta  Ta1  1  0.50000000  0.50000000  0.50000000  1
  C  C2  1  0.24699368  0.24699368  0.24699368  1
  C  C3  1  0.75300632  0.75300632  0.75300632  1
