# generated using pymatgen
data_Mn5VO8
_symmetry_space_group_name_H-M   'P 1'
_cell_length_a   10.21374807
_cell_length_b   10.21374807
_cell_length_c   5.40351884
_cell_angle_alpha   80.51259475
_cell_angle_beta   80.51259475
_cell_angle_gamma   35.26158856
_symmetry_Int_Tables_number   1
_chemical_formula_structural   Mn5VO8
_chemical_formula_sum   'Mn10 V2 O16'
_cell_volume   320.52473981
_cell_formula_units_Z   2
loop_
 _symmetry_equiv_pos_site_id
 _symmetry_equiv_pos_as_xyz
  1  'x, y, z'
loop_
 _atom_site_type_symbol
 _atom_site_label
 _atom_site_symmetry_multiplicity
 _atom_site_fract_x
 _atom_site_fract_y
 _atom_site_fract_z
 _atom_site_occupancy
  Mn  Mn0  1  0.63335912  0.63335912  0.24004030  1
  Mn  Mn1  1  0.36664088  0.36664088  0.75995970  1
  Mn  Mn2  1  0.75238146  0.24761854  0.50000000  1
  Mn  Mn3  1  0.24761854  0.75238146  0.50000000  1
  Mn  Mn4  1  0.88963348  0.37708803  0.74290329  1
  Mn  Mn5  1  0.37708803  0.88963348  0.74290329  1
  Mn  Mn6  1  0.11036652  0.62291197  0.25709671  1
  Mn  Mn7  1  0.62291197  0.11036652  0.25709671  1
  Mn  Mn8  1  -0.00000000  0.00000000  0.00000000  1
  Mn  Mn9  1  0.50000000  0.50000000  0.00000000  1
  V  V10  1  0.21350890  0.21350890  0.19594872  1
  V  V11  1  0.78649110  0.78649110  0.80405128  1
  O  O12  1  0.41196678  0.95455065  0.36648305  1
  O  O13  1  0.95455065  0.41196678  0.36648305  1
  O  O14  1  0.58803322  0.04544935  0.63351695  1
  O  O15  1  0.04544935  0.58803322  0.63351695  1
  O  O16  1  0.33550684  0.78051909  0.10406341  1
  O  O17  1  0.78051909  0.33550684  0.10406341  1
  O  O18  1  0.66449316  0.21948091  0.89593659  1
  O  O19  1  0.21948091  0.66449316  0.89593659  1
  O  O20  1  0.43008289  0.43008289  0.39474281  1
  O  O21  1  0.56991711  0.56991711  0.60525719  1
  O  O22  1  0.94441895  0.94441895  0.32646892  1
  O  O23  1  0.05558105  0.05558105  0.67353108  1
  O  O24  1  0.18374827  0.18374827  0.91040268  1
  O  O25  1  0.81625173  0.81625173  0.08959732  1
  O  O26  1  0.69301962  0.69301962  0.86753476  1
  O  O27  1  0.30698038  0.30698038  0.13246524  1
