# generated using pymatgen
data_Mn2Nb2Zn2O9
_symmetry_space_group_name_H-M   'P 1'
_cell_length_a   5.32157959
_cell_length_b   5.32157959
_cell_length_c   14.57756000
_cell_angle_alpha   90.00000000
_cell_angle_beta   90.00000000
_cell_angle_gamma   119.99999496
_symmetry_Int_Tables_number   1
_chemical_formula_structural   Mn2Nb2Zn2O9
_chemical_formula_sum   'Mn4 Nb4 Zn4 O18'
_cell_volume   357.51693287
_cell_formula_units_Z   2
loop_
 _symmetry_equiv_pos_site_id
 _symmetry_equiv_pos_as_xyz
  1  'x, y, z'
loop_
 _atom_site_type_symbol
 _atom_site_label
 _atom_site_symmetry_multiplicity
 _atom_site_fract_x
 _atom_site_fract_y
 _atom_site_fract_z
 _atom_site_occupancy
  Mn  Mn0  1  0.33333300  0.66666700  0.01759600  1
  Mn  Mn1  1  0.33333300  0.66666700  0.51759600  1
  Mn  Mn2  1  0.66666700  0.33333300  0.98240400  1
  Mn  Mn3  1  0.66666700  0.33333300  0.48240400  1
  Nb  Nb4  1  0.00000000  0.00000000  0.64397500  1
  Nb  Nb5  1  0.00000000  0.00000000  0.14397500  1
  Nb  Nb6  1  0.00000000  0.00000000  0.85602500  1
  Nb  Nb7  1  0.00000000  0.00000000  0.35602500  1
  Zn  Zn8  1  0.66666700  0.33333300  0.71024400  1
  Zn  Zn9  1  0.33333300  0.66666700  0.29791600  1
  Zn  Zn10  1  0.33333300  0.66666700  0.79791600  1
  Zn  Zn11  1  0.66666700  0.33333300  0.21024400  1
  O  O12  1  0.68886200  0.66321100  0.58829100  1
  O  O13  1  0.00000000  0.71344800  0.75000000  1
  O  O14  1  0.66321100  0.97434800  0.41170900  1
  O  O15  1  0.31113800  0.33678900  0.41170900  1
  O  O16  1  0.97434800  0.31113800  0.58829100  1
  O  O17  1  0.71344800  0.71344800  0.25000000  1
  O  O18  1  0.02565200  0.33678900  0.91170900  1
  O  O19  1  0.33678900  0.02565200  0.58829100  1
  O  O20  1  0.33678900  0.31113800  0.08829100  1
  O  O21  1  0.02565200  0.68886200  0.41170900  1
  O  O22  1  0.66321100  0.68886200  0.91170900  1
  O  O23  1  0.68886200  0.02565200  0.08829100  1
  O  O24  1  0.71344800  0.00000000  0.75000000  1
  O  O25  1  0.28655200  0.28655200  0.75000000  1
  O  O26  1  0.28655200  0.00000000  0.25000000  1
  O  O27  1  0.97434800  0.66321100  0.08829100  1
  O  O28  1  0.00000000  0.28655200  0.25000000  1
  O  O29  1  0.31113800  0.97434800  0.91170900  1
