# generated using pymatgen
data_LaSi2Ag
_symmetry_space_group_name_H-M   'P 1'
_cell_length_a   4.29787087
_cell_length_b   4.35276466
_cell_length_c   9.00402478
_cell_angle_alpha   103.98762251
_cell_angle_beta   90.00000000
_cell_angle_gamma   90.00000000
_symmetry_Int_Tables_number   1
_chemical_formula_structural   LaSi2Ag
_chemical_formula_sum   'La2 Si4 Ag2'
_cell_volume   163.44917436
_cell_formula_units_Z   2
loop_
 _symmetry_equiv_pos_site_id
 _symmetry_equiv_pos_as_xyz
  1  'x, y, z'
loop_
 _atom_site_type_symbol
 _atom_site_label
 _atom_site_symmetry_multiplicity
 _atom_site_fract_x
 _atom_site_fract_y
 _atom_site_fract_z
 _atom_site_occupancy
  La  La0  1  0.25000000  0.40122913  0.80245725  1
  La  La1  1  0.75000000  0.59877087  0.19754275  1
  Si  Si2  1  0.25000000  0.03197036  0.06394072  1
  Si  Si3  1  0.75000000  0.96802964  0.93605928  1
  Si  Si4  1  0.25000000  0.16584500  0.33169001  1
  Si  Si5  1  0.75000000  0.83415500  0.66830999  1
  Ag  Ag6  1  0.25000000  0.74778152  0.49556404  1
  Ag  Ag7  1  0.75000000  0.25221848  0.50443596  1
