# generated using pymatgen
data_Tm3In
_symmetry_space_group_name_H-M   'P 1'
_cell_length_a   6.73304916
_cell_length_b   6.73304967
_cell_length_c   5.53507488
_cell_angle_alpha   90.00000000
_cell_angle_beta   90.00000000
_cell_angle_gamma   120.00001107
_symmetry_Int_Tables_number   1
_chemical_formula_structural   Tm3In
_chemical_formula_sum   'Tm6 In2'
_cell_volume   217.30898717
_cell_formula_units_Z   2
loop_
 _symmetry_equiv_pos_site_id
 _symmetry_equiv_pos_as_xyz
  1  'x, y, z'
loop_
 _atom_site_type_symbol
 _atom_site_label
 _atom_site_symmetry_multiplicity
 _atom_site_fract_x
 _atom_site_fract_y
 _atom_site_fract_z
 _atom_site_occupancy
  Tm  Tm0  1  0.82975060  0.17024940  0.75000000  1
  Tm  Tm1  1  0.34049981  0.17024940  0.75000000  1
  Tm  Tm2  1  0.82975060  0.65950019  0.75000000  1
  Tm  Tm3  1  0.17024940  0.82975060  0.25000000  1
  Tm  Tm4  1  0.65950019  0.82975060  0.25000000  1
  Tm  Tm5  1  0.17024940  0.34049981  0.25000000  1
  In  In6  1  0.66666700  0.33333300  0.25000000  1
  In  In7  1  0.33333300  0.66666700  0.75000000  1
