# generated using pymatgen
data_U8VS17
_symmetry_space_group_name_H-M   'P 1'
_cell_length_a   7.90288666
_cell_length_b   7.90288666
_cell_length_c   10.43657058
_cell_angle_alpha   80.89059460
_cell_angle_beta   80.89059460
_cell_angle_gamma   64.91082995
_symmetry_Int_Tables_number   1
_chemical_formula_structural   U8VS17
_chemical_formula_sum   'U8 V1 S17'
_cell_volume   579.83858697
_cell_formula_units_Z   1
loop_
 _symmetry_equiv_pos_site_id
 _symmetry_equiv_pos_as_xyz
  1  'x, y, z'
loop_
 _atom_site_type_symbol
 _atom_site_label
 _atom_site_symmetry_multiplicity
 _atom_site_fract_x
 _atom_site_fract_y
 _atom_site_fract_z
 _atom_site_occupancy
  U  U0  1  0.81244140  0.29918105  0.29326045  1
  U  U1  1  0.29918105  0.81244140  0.29326045  1
  U  U2  1  0.18755860  0.70081895  0.70673955  1
  U  U3  1  0.70081895  0.18755860  0.70673955  1
  U  U4  1  0.20612762  0.20612762  0.54243322  1
  U  U5  1  0.79387238  0.79387238  0.45756678  1
  U  U6  1  0.68320323  0.68320323  0.97877377  1
  U  U7  1  0.31679677  0.31679677  0.02122623  1
  V  V8  1  -0.00000000  -0.00000000  -0.00000000  1
  S  S9  1  0.82445043  0.43036487  0.53321863  1
  S  S10  1  0.43036487  0.82445043  0.53321863  1
  S  S11  1  0.17554957  0.56963513  0.46678137  1
  S  S12  1  0.56963513  0.17554957  0.46678137  1
  S  S13  1  0.94201695  0.32512663  0.02900960  1
  S  S14  1  0.32512663  0.94201695  0.02900960  1
  S  S15  1  0.05798305  0.67487337  0.97099040  1
  S  S16  1  0.67487337  0.05798305  0.97099040  1
  S  S17  1  0.20731795  0.20731795  0.27875623  1
  S  S18  1  0.79268205  0.79268205  0.72124377  1
  S  S19  1  0.05938084  0.05938084  0.77190774  1
  S  S20  1  0.94061916  0.94061916  0.22809226  1
  S  S21  1  0.30406243  0.30406243  0.75503105  1
  S  S22  1  0.69593757  0.69593757  0.24496895  1
  S  S23  1  0.52247434  0.52247434  0.83092957  1
  S  S24  1  0.47752566  0.47752566  0.16907043  1
  S  S25  1  -0.00000000  -0.00000000  0.50000000  1
