# generated using pymatgen
data_Lu8Te
_symmetry_space_group_name_H-M   'P 1'
_cell_length_a   8.96265292
_cell_length_b   8.96265079
_cell_length_c   3.69614945
_cell_angle_alpha   90.00000000
_cell_angle_beta   90.00000000
_cell_angle_gamma   120.00000403
_symmetry_Int_Tables_number   1
_chemical_formula_structural   Lu8Te
_chemical_formula_sum   'Lu8 Te1'
_cell_volume   257.13026139
_cell_formula_units_Z   1
loop_
 _symmetry_equiv_pos_site_id
 _symmetry_equiv_pos_as_xyz
  1  'x, y, z'
loop_
 _atom_site_type_symbol
 _atom_site_label
 _atom_site_symmetry_multiplicity
 _atom_site_fract_x
 _atom_site_fract_y
 _atom_site_fract_z
 _atom_site_occupancy
  Lu  Lu0  1  0.72326539  0.72326339  0.00000000  1
  Lu  Lu1  1  0.00000000  0.27673761  -0.00000000  1
  Lu  Lu2  1  0.61111195  -0.00000000  0.50000000  1
  Lu  Lu3  1  0.38888705  0.38888805  0.50000000  1
  Lu  Lu4  1  0.00000000  0.61111295  0.50000000  1
  Lu  Lu5  1  0.33333200  0.66666600  0.00000000  1
  Lu  Lu6  1  0.66666800  0.33333400  0.00000000  1
  Lu  Lu7  1  0.27673461  0.99999900  0.00000000  1
  Te  Te8  1  0.00000000  0.99999900  0.50000000  1
