# generated using pymatgen
data_TbSiPt2
_symmetry_space_group_name_H-M   'P 1'
_cell_length_a   5.53302783
_cell_length_b   6.91622294
_cell_length_c   7.32087111
_cell_angle_alpha   89.99976744
_cell_angle_beta   89.99942960
_cell_angle_gamma   89.99996840
_symmetry_Int_Tables_number   1
_chemical_formula_structural   TbSiPt2
_chemical_formula_sum   'Tb4 Si4 Pt8'
_cell_volume   280.15256265
_cell_formula_units_Z   4
loop_
 _symmetry_equiv_pos_site_id
 _symmetry_equiv_pos_as_xyz
  1  'x, y, z'
loop_
 _atom_site_type_symbol
 _atom_site_label
 _atom_site_symmetry_multiplicity
 _atom_site_fract_x
 _atom_site_fract_y
 _atom_site_fract_z
 _atom_site_occupancy
  Tb  Tb0  1  0.13790836  0.74999602  0.52643654  1
  Tb  Tb1  1  0.86209504  0.25000351  0.47357486  1
  Tb  Tb2  1  0.63791588  0.25000231  0.97356113  1
  Tb  Tb3  1  0.36208406  0.74999675  0.02642705  1
  Si  Si4  1  0.86276468  0.74999898  0.87781044  1
  Si  Si5  1  0.13723630  0.25000423  0.12218473  1
  Si  Si6  1  0.36276320  0.25000092  0.62219366  1
  Si  Si7  1  0.63723352  0.74999803  0.37781206  1
  Pt  Pt8  1  0.59102699  0.55108689  0.68021027  1
  Pt  Pt9  1  0.40897638  0.44891133  0.31979100  1
  Pt  Pt10  1  0.09101672  0.44890588  0.81979483  1
  Pt  Pt11  1  0.40897599  0.05108582  0.31978899  1
  Pt  Pt12  1  0.90897289  0.55108783  0.18019863  1
  Pt  Pt13  1  0.59102594  0.94891469  0.68021055  1
  Pt  Pt14  1  0.90897933  0.94892571  0.18020519  1
  Pt  Pt15  1  0.09102470  0.05108209  0.81979806  1
