# generated using pymatgen
data_SrMoO3
_symmetry_space_group_name_H-M   'P 1'
_cell_length_a   5.62925261
_cell_length_b   5.64031801
_cell_length_c   5.61795213
_cell_angle_alpha   60.20138919
_cell_angle_beta   60.19408403
_cell_angle_gamma   59.81371416
_symmetry_Int_Tables_number   1
_chemical_formula_structural   SrMoO3
_chemical_formula_sum   'Sr2 Mo2 O6'
_cell_volume   126.32524882
_cell_formula_units_Z   2
loop_
 _symmetry_equiv_pos_site_id
 _symmetry_equiv_pos_as_xyz
  1  'x, y, z'
loop_
 _atom_site_type_symbol
 _atom_site_label
 _atom_site_symmetry_multiplicity
 _atom_site_fract_x
 _atom_site_fract_y
 _atom_site_fract_z
 _atom_site_occupancy
  Sr  Sr0  1  0.74984624  0.75010061  0.74968806  1
  Sr  Sr1  1  0.25015376  0.24989939  0.25031194  1
  Mo  Mo2  1  0.50000000  0.50000000  0.50000000  1
  Mo  Mo3  1  -0.00000000  0.00000000  0.00000000  1
  O  O4  1  0.75520354  0.22697945  0.27543157  1
  O  O5  1  0.24479646  0.77302055  0.72456843  1
  O  O6  1  0.24034647  0.25843700  0.75959801  1
  O  O7  1  0.26638000  0.73386500  0.23520683  1
  O  O8  1  0.73362000  0.26613500  0.76479317  1
  O  O9  1  0.75965353  0.74156300  0.24040199  1
