# generated using pymatgen
data_Na4Mn2O5
_symmetry_space_group_name_H-M   'P 1'
_cell_length_a   10.79087936
_cell_length_b   10.15759226
_cell_length_c   5.44132932
_cell_angle_alpha   81.50079166
_cell_angle_beta   68.58597097
_cell_angle_gamma   29.92408734
_symmetry_Int_Tables_number   1
_chemical_formula_structural   Na4Mn2O5
_chemical_formula_sum   'Na8 Mn4 O10'
_cell_volume   258.08055535
_cell_formula_units_Z   2
loop_
 _symmetry_equiv_pos_site_id
 _symmetry_equiv_pos_as_xyz
  1  'x, y, z'
loop_
 _atom_site_type_symbol
 _atom_site_label
 _atom_site_symmetry_multiplicity
 _atom_site_fract_x
 _atom_site_fract_y
 _atom_site_fract_z
 _atom_site_occupancy
  Na  Na0  1  0.65783235  0.16220472  0.34133158  1
  Na  Na1  1  0.08733007  0.59253496  0.41214482  1
  Na  Na2  1  0.34171956  0.83825577  0.65819730  1
  Na  Na3  1  0.16266702  0.65748161  0.83785972  1
  Na  Na4  1  0.59218431  0.08779052  0.90864999  1
  Na  Na5  1  0.41185629  0.90825619  0.08756425  1
  Na  Na6  1  0.90826268  0.41175055  0.59182219  1
  Na  Na7  1  0.83814786  0.34172823  0.16243290  1
  Mn  Mn8  1  0.97167514  0.52827911  0.97175408  1
  Mn  Mn9  1  0.72170106  0.27825246  0.72172539  1
  Mn  Mn10  1  0.27830666  0.72174645  0.27828312  1
  Mn  Mn11  1  0.52831382  0.97172340  0.52824122  1
  O  O12  1  0.74995999  0.75002065  0.75003437  1
  O  O13  1  0.31557513  0.31558274  0.68439640  1
  O  O14  1  0.06636105  0.06636447  0.43364617  1
  O  O15  1  0.43357882  0.43366560  0.06642652  1
  O  O16  1  0.18363903  0.18362870  0.81635255  1
  O  O17  1  0.81642051  0.81633674  0.18357381  1
  O  O18  1  0.68437555  0.68443430  0.31564104  1
  O  O19  1  0.93445440  0.93441298  0.56555740  1
  O  O20  1  0.50003302  0.49998573  0.49997230  1
  O  O21  1  0.56560668  0.56556510  0.93439387  1
