# generated using pymatgen
data_Ba5Sb4
_symmetry_space_group_name_H-M   'P 1'
_cell_length_a   9.14393886
_cell_length_b   9.18840753
_cell_length_c   10.10416762
_cell_angle_alpha   90.00000000
_cell_angle_beta   116.90313687
_cell_angle_gamma   90.00000000
_symmetry_Int_Tables_number   1
_chemical_formula_structural   Ba5Sb4
_chemical_formula_sum   'Ba10 Sb8'
_cell_volume   757.05652381
_cell_formula_units_Z   2
loop_
 _symmetry_equiv_pos_site_id
 _symmetry_equiv_pos_as_xyz
  1  'x, y, z'
loop_
 _atom_site_type_symbol
 _atom_site_label
 _atom_site_symmetry_multiplicity
 _atom_site_fract_x
 _atom_site_fract_y
 _atom_site_fract_z
 _atom_site_occupancy
  Ba  Ba0  1  0.50000000  0.50000000  0.00000000  1
  Ba  Ba1  1  0.00000000  -0.00000000  0.00000000  1
  Ba  Ba2  1  0.31468299  0.33560930  0.29228660  1
  Ba  Ba3  1  0.52239739  0.16439070  0.70771340  1
  Ba  Ba4  1  0.18531701  0.83560930  0.70771340  1
  Ba  Ba5  1  0.97760261  0.66439070  0.29228660  1
  Ba  Ba6  1  0.68531701  0.66439070  0.70771340  1
  Ba  Ba7  1  0.47760261  0.83560930  0.29228660  1
  Ba  Ba8  1  0.81468299  0.16439070  0.29228660  1
  Ba  Ba9  1  0.02239739  0.33560930  0.70771340  1
  Sb  Sb10  1  0.88761272  0.38752203  0.00000000  1
  Sb  Sb11  1  0.38761272  0.11247797  0.00000000  1
  Sb  Sb12  1  0.61238728  0.88752203  -0.00000000  1
  Sb  Sb13  1  0.11238728  0.61247797  -0.00000000  1
  Sb  Sb14  1  0.19823405  -0.00000000  0.39646611  1
  Sb  Sb15  1  0.30176595  0.50000000  0.60353389  1
  Sb  Sb16  1  0.80176595  -0.00000000  0.60353389  1
  Sb  Sb17  1  0.69823405  0.50000000  0.39646611  1
