# generated using pymatgen
data_Sr2Al3In
_symmetry_space_group_name_H-M   'P 1'
_cell_length_a   6.16694599
_cell_length_b   6.16694599
_cell_length_c   8.00468759
_cell_angle_alpha   49.95943656
_cell_angle_beta   49.95943656
_cell_angle_gamma   46.47670890
_symmetry_Int_Tables_number   1
_chemical_formula_structural   Sr2Al3In
_chemical_formula_sum   'Sr2 Al3 In1'
_cell_volume   157.61104240
_cell_formula_units_Z   1
loop_
 _symmetry_equiv_pos_site_id
 _symmetry_equiv_pos_as_xyz
  1  'x, y, z'
loop_
 _atom_site_type_symbol
 _atom_site_label
 _atom_site_symmetry_multiplicity
 _atom_site_fract_x
 _atom_site_fract_y
 _atom_site_fract_z
 _atom_site_occupancy
  Sr  Sr0  1  0.54836619  0.54836619  0.70056238  1
  Sr  Sr1  1  0.45249905  0.45249905  0.29683933  1
  Al  Al2  1  0.83135190  0.83135190  0.74214641  1
  Al  Al3  1  0.84667958  0.84667958  0.08356075  1
  Al  Al4  1  0.16102908  0.16102908  0.89963870  1
  In  In5  1  0.16007419  0.16007419  0.27725243  1
