# generated using pymatgen
data_Ca2MnReO6
_symmetry_space_group_name_H-M   'P 1'
_cell_length_a   5.42974145
_cell_length_b   11.22005662
_cell_length_c   7.72423982
_cell_angle_alpha   90.00002328
_cell_angle_beta   90.62469542
_cell_angle_gamma   90.00029088
_symmetry_Int_Tables_number   1
_chemical_formula_structural   Ca2MnReO6
_chemical_formula_sum   'Ca8 Mn4 Re4 O24'
_cell_volume   470.54821862
_cell_formula_units_Z   4
loop_
 _symmetry_equiv_pos_site_id
 _symmetry_equiv_pos_as_xyz
  1  'x, y, z'
loop_
 _atom_site_type_symbol
 _atom_site_label
 _atom_site_symmetry_multiplicity
 _atom_site_fract_x
 _atom_site_fract_y
 _atom_site_fract_z
 _atom_site_occupancy
  Ca  Ca0  1  0.01200580  0.02860437  0.24566263  1
  Ca  Ca1  1  0.01205678  0.52864570  0.24567679  1
  Ca  Ca2  1  0.51200437  0.22139574  0.74566527  1
  Ca  Ca3  1  0.51204711  0.72135494  0.74567700  1
  Ca  Ca4  1  0.98803246  0.47142402  0.75450031  1
  Ca  Ca5  1  0.98794857  0.97139269  0.75454283  1
  Ca  Ca6  1  0.48795674  0.27860676  0.25453662  1
  Ca  Ca7  1  0.48803093  0.77857700  0.25449332  1
  Mn  Mn8  1  -0.00011635  0.74999468  -0.00000133  1
  Mn  Mn9  1  0.49988498  0.50000381  0.49999834  1
  Mn  Mn10  1  -0.00014003  0.25004241  -0.00000262  1
  Mn  Mn11  1  0.49986408  -0.00004119  0.49999624  1
  Re  Re12  1  -0.00006625  0.24996246  0.49997843  1
  Re  Re13  1  -0.00000247  0.74993637  0.49998730  1
  Re  Re14  1  0.49992760  0.00003684  -0.00002584  1
  Re  Re15  1  0.50000073  0.50006367  -0.00001518  1
  O  O16  1  0.17896804  0.39104726  0.44982281  1
  O  O17  1  0.17900681  0.89099977  0.44978624  1
  O  O18  1  0.67901191  0.35900558  0.94978458  1
  O  O19  1  0.67896208  0.85895058  0.94982784  1
  O  O20  1  0.82120873  0.10889032  0.55017650  1
  O  O21  1  0.82128441  0.60887942  0.55016177  1
  O  O22  1  0.32119827  0.14111140  0.05017350  1
  O  O23  1  0.32127941  0.64111639  0.05016458  1
  O  O24  1  0.29445444  0.15338229  0.45302877  1
  O  O25  1  0.29453841  0.65336558  0.45304247  1
  O  O26  1  0.79444209  0.09662137  0.95302670  1
  O  O27  1  0.79453078  0.59663473  0.95304580  1
  O  O28  1  0.70552310  0.34657257  0.54680542  1
  O  O29  1  0.70559933  0.84652244  0.54680913  1
  O  O30  1  0.20561282  0.40347568  0.04681412  1
  O  O31  1  0.20551919  0.90342463  0.04681492  1
  O  O32  1  0.90630314  0.23449599  0.25532658  1
  O  O33  1  0.90635917  0.73446692  0.25532488  1
  O  O34  1  0.40630114  0.01550174  0.75532425  1
  O  O35  1  0.40636250  0.51553332  0.75532933  1
  O  O36  1  0.09351465  0.26554166  0.74467612  1
  O  O37  1  0.09353455  0.76552455  0.74469352  1
  O  O38  1  0.59354233  0.48447466  0.24469032  1
  O  O39  1  0.59350766  0.98446287  0.24467873  1
