# generated using pymatgen
data_Sr(ScTe2)2
_symmetry_space_group_name_H-M   'P 1'
_cell_length_a   4.26178251
_cell_length_b   13.28018432
_cell_length_c   15.46483481
_cell_angle_alpha   90.00000000
_cell_angle_beta   90.00000000
_cell_angle_gamma   90.00000000
_symmetry_Int_Tables_number   1
_chemical_formula_structural   Sr(ScTe2)2
_chemical_formula_sum   'Sr4 Sc8 Te16'
_cell_volume   875.26723430
_cell_formula_units_Z   4
loop_
 _symmetry_equiv_pos_site_id
 _symmetry_equiv_pos_as_xyz
  1  'x, y, z'
loop_
 _atom_site_type_symbol
 _atom_site_label
 _atom_site_symmetry_multiplicity
 _atom_site_fract_x
 _atom_site_fract_y
 _atom_site_fract_z
 _atom_site_occupancy
  Sr  Sr0  1  0.25000000  0.23820834  0.32678948  1
  Sr  Sr1  1  0.75000000  0.76179166  0.67321052  1
  Sr  Sr2  1  0.25000000  0.73820834  0.17321052  1
  Sr  Sr3  1  0.75000000  0.26179166  0.82678948  1
  Sc  Sc4  1  0.25000000  0.55357294  0.38824628  1
  Sc  Sc5  1  0.75000000  0.44642706  0.61175372  1
  Sc  Sc6  1  0.25000000  0.05357294  0.11175372  1
  Sc  Sc7  1  0.75000000  0.94642706  0.88824628  1
  Sc  Sc8  1  0.75000000  0.41578140  0.09420728  1
  Sc  Sc9  1  0.25000000  0.58421860  0.90579272  1
  Sc  Sc10  1  0.75000000  0.91578140  0.40579272  1
  Sc  Sc11  1  0.25000000  0.08421860  0.59420728  1
  Te  Te12  1  0.75000000  0.40742733  0.42663590  1
  Te  Te13  1  0.25000000  0.59257267  0.57336410  1
  Te  Te14  1  0.75000000  0.90742733  0.07336410  1
  Te  Te15  1  0.25000000  0.09257267  0.92663590  1
  Te  Te16  1  0.75000000  0.20165493  0.15731054  1
  Te  Te17  1  0.25000000  0.79834507  0.84268946  1
  Te  Te18  1  0.75000000  0.70165493  0.34268946  1
  Te  Te19  1  0.25000000  0.29834507  0.65731054  1
  Te  Te20  1  0.75000000  0.12358522  0.46789321  1
  Te  Te21  1  0.25000000  0.87641478  0.53210679  1
  Te  Te22  1  0.75000000  0.62358522  0.03210679  1
  Te  Te23  1  0.25000000  0.37641478  0.96789321  1
  Te  Te24  1  0.75000000  0.03180813  0.71417760  1
  Te  Te25  1  0.25000000  0.96819187  0.28582240  1
  Te  Te26  1  0.75000000  0.53180813  0.78582240  1
  Te  Te27  1  0.25000000  0.46819187  0.21417760  1
