# generated using pymatgen
data_Dy2Si5Ni3
_symmetry_space_group_name_H-M   'P 1'
_cell_length_a   5.63481209
_cell_length_b   7.81425168
_cell_length_c   7.81425117
_cell_angle_alpha   75.09146695
_cell_angle_beta   68.86620798
_cell_angle_gamma   68.86619318
_symmetry_Int_Tables_number   1
_chemical_formula_structural   Dy2Si5Ni3
_chemical_formula_sum   'Dy4 Si10 Ni6'
_cell_volume   296.12704843
_cell_formula_units_Z   2
loop_
 _symmetry_equiv_pos_site_id
 _symmetry_equiv_pos_as_xyz
  1  'x, y, z'
loop_
 _atom_site_type_symbol
 _atom_site_label
 _atom_site_symmetry_multiplicity
 _atom_site_fract_x
 _atom_site_fract_y
 _atom_site_fract_z
 _atom_site_occupancy
  Dy  Dy0  1  0.13093941  0.63283854  0.10528365  1
  Dy  Dy1  1  0.86906059  0.36716146  0.89471635  1
  Dy  Dy2  1  0.36906059  0.89471635  0.36716146  1
  Dy  Dy3  1  0.63093941  0.10528365  0.63283854  1
  Si  Si4  1  0.25000000  0.00000000  0.00000000  1
  Si  Si5  1  0.75000000  0.00000000  0.00000000  1
  Si  Si6  1  0.98497102  0.26502898  0.26502898  1
  Si  Si7  1  0.51502898  0.73497102  0.73497102  1
  Si  Si8  1  0.01502898  0.73497102  0.73497102  1
  Si  Si9  1  0.48497102  0.26502898  0.26502898  1
  Si  Si10  1  0.39226703  0.45688914  0.75857579  1
  Si  Si11  1  0.89226703  0.75857579  0.45688914  1
  Si  Si12  1  0.10773297  0.24142421  0.54311086  1
  Si  Si13  1  0.60773297  0.54311086  0.24142421  1
  Ni  Ni14  1  0.86622016  0.02041172  0.24714696  1
  Ni  Ni15  1  0.75000000  0.50000000  0.50000000  1
  Ni  Ni16  1  0.36622016  0.24714696  0.02041172  1
  Ni  Ni17  1  0.63377984  0.75285304  0.97958828  1
  Ni  Ni18  1  0.13377984  0.97958828  0.75285304  1
  Ni  Ni19  1  0.25000000  0.50000000  0.50000000  1
