# generated using pymatgen
data_Mn3ZnO7
_symmetry_space_group_name_H-M   'P 1'
_cell_length_a   6.44483285
_cell_length_b   6.44483217
_cell_length_c   6.44483186
_cell_angle_alpha   71.56305609
_cell_angle_beta   71.56305759
_cell_angle_gamma   71.56306041
_symmetry_Int_Tables_number   1
_chemical_formula_structural   Mn3ZnO7
_chemical_formula_sum   'Mn6 Zn2 O14'
_cell_volume   233.85939479
_cell_formula_units_Z   2
loop_
 _symmetry_equiv_pos_site_id
 _symmetry_equiv_pos_as_xyz
  1  'x, y, z'
loop_
 _atom_site_type_symbol
 _atom_site_label
 _atom_site_symmetry_multiplicity
 _atom_site_fract_x
 _atom_site_fract_y
 _atom_site_fract_z
 _atom_site_occupancy
  Mn  Mn0  1  0.57966700  0.14018983  0.28525853  1
  Mn  Mn1  1  0.28525853  0.57966700  0.14018983  1
  Mn  Mn2  1  0.14018983  0.28525853  0.57966700  1
  Mn  Mn3  1  0.42033300  0.85981017  0.71474147  1
  Mn  Mn4  1  0.71474147  0.42033300  0.85981017  1
  Mn  Mn5  1  0.85981017  0.71474147  0.42033300  1
  Zn  Zn6  1  0.87211689  0.87211689  0.87211689  1
  Zn  Zn7  1  0.12788311  0.12788311  0.12788311  1
  O  O8  1  0.55494274  0.83765413  0.40595808  1
  O  O9  1  0.40595808  0.55494274  0.83765413  1
  O  O10  1  0.83765413  0.40595808  0.55494274  1
  O  O11  1  0.44505726  0.16234587  0.59404192  1
  O  O12  1  0.59404192  0.44505726  0.16234587  1
  O  O13  1  0.16234587  0.59404192  0.44505726  1
  O  O14  1  0.13276357  0.98131108  0.66897020  1
  O  O15  1  0.66897020  0.13276357  0.98131108  1
  O  O16  1  0.98131108  0.66897020  0.13276357  1
  O  O17  1  0.86723643  0.01868892  0.33102980  1
  O  O18  1  0.33102980  0.86723643  0.01868892  1
  O  O19  1  0.01868892  0.33102980  0.86723643  1
  O  O20  1  0.26456819  0.26456819  0.26456819  1
  O  O21  1  0.73543181  0.73543181  0.73543181  1
