# generated using pymatgen
data_TmPS
_symmetry_space_group_name_H-M   'P 1'
_cell_length_a   5.25241373
_cell_length_b   5.27313302
_cell_length_c   16.51061006
_cell_angle_alpha   90.00000000
_cell_angle_beta   90.00000000
_cell_angle_gamma   90.00000000
_symmetry_Int_Tables_number   1
_chemical_formula_structural   TmPS
_chemical_formula_sum   'Tm8 P8 S8'
_cell_volume   457.28902192
_cell_formula_units_Z   8
loop_
 _symmetry_equiv_pos_site_id
 _symmetry_equiv_pos_as_xyz
  1  'x, y, z'
loop_
 _atom_site_type_symbol
 _atom_site_label
 _atom_site_symmetry_multiplicity
 _atom_site_fract_x
 _atom_site_fract_y
 _atom_site_fract_z
 _atom_site_occupancy
  Tm  Tm0  1  0.25000000  0.48408646  0.36163905  1
  Tm  Tm1  1  0.25000000  0.98408646  0.13836095  1
  Tm  Tm2  1  0.75000000  0.51591354  0.63836095  1
  Tm  Tm3  1  0.75000000  0.01591354  0.86163905  1
  Tm  Tm4  1  0.25000000  0.01337768  0.64618641  1
  Tm  Tm5  1  0.25000000  0.51337768  0.85381359  1
  Tm  Tm6  1  0.75000000  0.98662232  0.35381359  1
  Tm  Tm7  1  0.75000000  0.48662232  0.14618641  1
  P  P8  1  0.03664533  0.29082754  0.99728736  1
  P  P9  1  0.46335467  0.79082754  0.50271264  1
  P  P10  1  0.53664533  0.70917246  0.00271264  1
  P  P11  1  0.96335467  0.20917246  0.49728736  1
  P  P12  1  0.96335467  0.70917246  0.00271264  1
  P  P13  1  0.53664533  0.20917246  0.49728736  1
  P  P14  1  0.46335467  0.29082754  0.99728736  1
  P  P15  1  0.03664533  0.79082754  0.50271264  1
  S  S16  1  0.25000000  0.48551168  0.18903855  1
  S  S17  1  0.25000000  0.98551168  0.31096145  1
  S  S18  1  0.75000000  0.51448832  0.81096145  1
  S  S19  1  0.75000000  0.01448832  0.68903855  1
  S  S20  1  0.25000000  0.00996946  0.81533887  1
  S  S21  1  0.25000000  0.50996946  0.68466113  1
  S  S22  1  0.75000000  0.99003054  0.18466113  1
  S  S23  1  0.75000000  0.49003054  0.31533887  1
