# generated using pymatgen
data_CaLaFeWO6
_symmetry_space_group_name_H-M   'P 1'
_cell_length_a   5.64050216
_cell_length_b   8.00577387
_cell_length_c   5.75555461
_cell_angle_alpha   89.84650841
_cell_angle_beta   90.76807383
_cell_angle_gamma   89.44593530
_symmetry_Int_Tables_number   1
_chemical_formula_structural   CaLaFeWO6
_chemical_formula_sum   'Ca2 La2 Fe2 W2 O12'
_cell_volume   259.86466089
_cell_formula_units_Z   2
loop_
 _symmetry_equiv_pos_site_id
 _symmetry_equiv_pos_as_xyz
  1  'x, y, z'
loop_
 _atom_site_type_symbol
 _atom_site_label
 _atom_site_symmetry_multiplicity
 _atom_site_fract_x
 _atom_site_fract_y
 _atom_site_fract_z
 _atom_site_occupancy
  Ca  Ca0  1  0.52170100  0.25319500  0.55270600  1
  Ca  Ca1  1  0.01903500  0.75361000  0.94782900  1
  La  La2  1  0.98291100  0.24551800  0.04747400  1
  La  La3  1  0.47945800  0.74560000  0.45128300  1
  Fe  Fe4  1  0.49885200  0.50088900  0.00005500  1
  Fe  Fe5  1  0.99863200  0.00126900  0.50029700  1
  W  W6  1  0.99980500  0.49905300  0.50325200  1
  W  W7  1  0.50025800  0.99877600  0.99684600  1
  O  O8  1  0.60597000  0.76716300  0.02933800  1
  O  O9  1  0.10552700  0.26730700  0.47086300  1
  O  O10  1  0.21171900  0.94881800  0.19623000  1
  O  O11  1  0.70826600  0.44876300  0.30060800  1
  O  O12  1  0.19353200  0.56037200  0.21589000  1
  O  O13  1  0.69738000  0.05958000  0.28798600  1
  O  O14  1  0.90081300  0.73310500  0.53636800  1
  O  O15  1  0.40101600  0.23310300  0.96343100  1
  O  O16  1  0.28887400  0.55181100  0.70753900  1
  O  O17  1  0.78608100  0.05140700  0.79569200  1
  O  O18  1  0.29846100  0.94058400  0.70981900  1
  O  O19  1  0.80171000  0.44007800  0.78649300  1
