# generated using pymatgen
data_SmEuSe2
_symmetry_space_group_name_H-M   'P 1'
_cell_length_a   7.38146789
_cell_length_b   7.38146789
_cell_length_c   7.38146825
_cell_angle_alpha   33.16823495
_cell_angle_beta   33.16823495
_cell_angle_gamma   33.16822477
_symmetry_Int_Tables_number   1
_chemical_formula_structural   SmEuSe2
_chemical_formula_sum   'Sm1 Eu1 Se2'
_cell_volume   107.15856476
_cell_formula_units_Z   1
loop_
 _symmetry_equiv_pos_site_id
 _symmetry_equiv_pos_as_xyz
  1  'x, y, z'
loop_
 _atom_site_type_symbol
 _atom_site_label
 _atom_site_symmetry_multiplicity
 _atom_site_fract_x
 _atom_site_fract_y
 _atom_site_fract_z
 _atom_site_occupancy
  Sm  Sm0  1  0.50000000  0.50000000  0.50000000  1
  Eu  Eu1  1  -0.00000000  -0.00000000  0.00000000  1
  Se  Se2  1  0.24758992  0.24758992  0.24758992  1
  Se  Se3  1  0.75241008  0.75241008  0.75241008  1
