# generated using pymatgen
data_UCo2
_symmetry_space_group_name_H-M   'P 1'
_cell_length_a   4.86625479
_cell_length_b   4.86622486
_cell_length_c   4.86623745
_cell_angle_alpha   59.99999570
_cell_angle_beta   60.00020873
_cell_angle_gamma   60.00010807
_symmetry_Int_Tables_number   1
_chemical_formula_structural   UCo2
_chemical_formula_sum   'U2 Co4'
_cell_volume   81.48287468
_cell_formula_units_Z   2
loop_
 _symmetry_equiv_pos_site_id
 _symmetry_equiv_pos_as_xyz
  1  'x, y, z'
loop_
 _atom_site_type_symbol
 _atom_site_label
 _atom_site_symmetry_multiplicity
 _atom_site_fract_x
 _atom_site_fract_y
 _atom_site_fract_z
 _atom_site_occupancy
  U  U0  1  0.87500363  0.87499812  0.87500012  1
  U  U1  1  0.12499637  0.12500188  0.12499988  1
  Co  Co2  1  0.50000000  0.50000000  0.50000000  1
  Co  Co3  1  0.50000000  0.50000000  -0.00000000  1
  Co  Co4  1  -0.00000000  0.50000000  0.50000000  1
  Co  Co5  1  0.50000000  0.00000000  0.50000000  1
