# generated using pymatgen
data_Er2InNi2
_symmetry_space_group_name_H-M   'P 1'
_cell_length_a   3.65063939
_cell_length_b   3.81024449
_cell_length_c   7.28405628
_cell_angle_alpha   105.16186873
_cell_angle_beta   90.00000000
_cell_angle_gamma   90.00000000
_symmetry_Int_Tables_number   1
_chemical_formula_structural   Er2InNi2
_chemical_formula_sum   'Er2 In1 Ni2'
_cell_volume   97.79310437
_cell_formula_units_Z   1
loop_
 _symmetry_equiv_pos_site_id
 _symmetry_equiv_pos_as_xyz
  1  'x, y, z'
loop_
 _atom_site_type_symbol
 _atom_site_label
 _atom_site_symmetry_multiplicity
 _atom_site_fract_x
 _atom_site_fract_y
 _atom_site_fract_z
 _atom_site_occupancy
  Er  Er0  1  0.50000000  0.63822772  0.27645344  1
  Er  Er1  1  0.50000000  0.36177228  0.72354656  1
  In  In2  1  -0.00000000  -0.00000000  -0.00000000  1
  Ni  Ni3  1  -0.00000000  0.80061416  0.60122932  1
  Ni  Ni4  1  0.00000000  0.19938584  0.39877068  1
