# generated using pymatgen
data_Pr2Ge5Ir3
_symmetry_space_group_name_H-M   'P 1'
_cell_length_a   8.43656674
_cell_length_b   8.43656674
_cell_length_c   8.43656674
_cell_angle_alpha   137.53782277
_cell_angle_beta   105.42522451
_cell_angle_gamma   89.78779369
_symmetry_Int_Tables_number   1
_chemical_formula_structural   Pr2Ge5Ir3
_chemical_formula_sum   'Pr4 Ge10 Ir6'
_cell_volume   373.29206721
_cell_formula_units_Z   2
loop_
 _symmetry_equiv_pos_site_id
 _symmetry_equiv_pos_as_xyz
  1  'x, y, z'
loop_
 _atom_site_type_symbol
 _atom_site_label
 _atom_site_symmetry_multiplicity
 _atom_site_fract_x
 _atom_site_fract_y
 _atom_site_fract_z
 _atom_site_occupancy
  Pr  Pr0  1  0.86093182  0.63202874  0.22890308  1
  Pr  Pr1  1  0.13906818  0.36797126  0.77109692  1
  Pr  Pr2  1  0.40312566  0.13202874  0.27109692  1
  Pr  Pr3  1  0.59687434  0.86797126  0.72890308  1
  Ge  Ge4  1  0.50000000  0.75000000  0.25000000  1
  Ge  Ge5  1  0.50000000  0.25000000  0.75000000  1
  Ge  Ge6  1  0.22590785  0.97590785  0.75000000  1
  Ge  Ge7  1  0.77409215  0.52409215  0.75000000  1
  Ge  Ge8  1  0.77409215  0.02409215  0.25000000  1
  Ge  Ge9  1  0.22590785  0.47590785  0.25000000  1
  Ge  Ge10  1  0.05752483  0.89918701  0.15833782  1
  Ge  Ge11  1  0.94247517  0.10081299  0.84166218  1
  Ge  Ge12  1  0.74084920  0.39918701  0.34166218  1
  Ge  Ge13  1  0.25915080  0.60081299  0.65833782  1
  Ir  Ir14  1  -0.00000000  0.75000000  0.75000000  1
  Ir  Ir15  1  -0.00000000  0.25000000  0.25000000  1
  Ir  Ir16  1  0.24917135  0.85918171  0.38998964  1
  Ir  Ir17  1  0.75082865  0.14081829  0.61001036  1
  Ir  Ir18  1  0.46919206  0.35918171  0.11001036  1
  Ir  Ir19  1  0.53080794  0.64081829  0.88998964  1
