# generated using pymatgen
data_HoPt
_symmetry_space_group_name_H-M   'P 1'
_cell_length_a   4.49807952
_cell_length_b   5.50799260
_cell_length_c   6.95537046
_cell_angle_alpha   90.00000000
_cell_angle_beta   90.00000000
_cell_angle_gamma   90.00000000
_symmetry_Int_Tables_number   1
_chemical_formula_structural   HoPt
_chemical_formula_sum   'Ho4 Pt4'
_cell_volume   172.32200677
_cell_formula_units_Z   4
loop_
 _symmetry_equiv_pos_site_id
 _symmetry_equiv_pos_as_xyz
  1  'x, y, z'
loop_
 _atom_site_type_symbol
 _atom_site_label
 _atom_site_symmetry_multiplicity
 _atom_site_fract_x
 _atom_site_fract_y
 _atom_site_fract_z
 _atom_site_occupancy
  Ho  Ho0  1  0.25000000  0.35962242  0.68203734  1
  Ho  Ho1  1  0.25000000  0.14037758  0.18203734  1
  Ho  Ho2  1  0.75000000  0.64037758  0.31796266  1
  Ho  Ho3  1  0.75000000  0.85962242  0.81796266  1
  Pt  Pt4  1  0.25000000  0.84480249  0.54339354  1
  Pt  Pt5  1  0.25000000  0.65519751  0.04339454  1
  Pt  Pt6  1  0.75000000  0.15519751  0.45660546  1
  Pt  Pt7  1  0.75000000  0.34480249  0.95660646  1
