# generated using pymatgen
data_ErSiPd
_symmetry_space_group_name_H-M   'P 1'
_cell_length_a   4.29001790
_cell_length_b   7.39896987
_cell_length_c   13.77829570
_cell_angle_alpha   90.00000000
_cell_angle_beta   90.00000000
_cell_angle_gamma   90.00000000
_symmetry_Int_Tables_number   1
_chemical_formula_structural   ErSiPd
_chemical_formula_sum   'Er8 Si8 Pd8'
_cell_volume   437.34671027
_cell_formula_units_Z   8
loop_
 _symmetry_equiv_pos_site_id
 _symmetry_equiv_pos_as_xyz
  1  'x, y, z'
loop_
 _atom_site_type_symbol
 _atom_site_label
 _atom_site_symmetry_multiplicity
 _atom_site_fract_x
 _atom_site_fract_y
 _atom_site_fract_z
 _atom_site_occupancy
  Er  Er0  1  -0.00000000  0.30027656  0.00000000  1
  Er  Er1  1  0.50000000  0.69972344  0.50000000  1
  Er  Er2  1  0.00000000  0.29199871  0.50000000  1
  Er  Er3  1  0.50000000  0.70800129  0.00000000  1
  Er  Er4  1  0.00000000  0.21040486  0.24854153  1
  Er  Er5  1  0.50000000  0.78959514  0.25145847  1
  Er  Er6  1  0.00000000  0.21040486  0.75145847  1
  Er  Er7  1  0.50000000  0.78959514  0.74854153  1
  Si  Si8  1  0.00000000  0.90808161  0.59281259  1
  Si  Si9  1  0.50000000  0.09191839  0.90718741  1
  Si  Si10  1  0.00000000  0.90808161  0.40718741  1
  Si  Si11  1  0.50000000  0.09191839  0.09281259  1
  Si  Si12  1  0.00000000  0.59287451  0.14530585  1
  Si  Si13  1  0.50000000  0.40712549  0.35469415  1
  Si  Si14  1  0.00000000  0.59287451  0.85469415  1
  Si  Si15  1  0.50000000  0.40712549  0.64530585  1
  Pd  Pd16  1  0.50000000  0.07567683  0.60875129  1
  Pd  Pd17  1  -0.00000000  0.92432317  0.89124871  1
  Pd  Pd18  1  0.50000000  0.07567683  0.39124871  1
  Pd  Pd19  1  0.00000000  0.92432317  0.10875129  1
  Pd  Pd20  1  0.50000000  0.41824178  0.15643351  1
  Pd  Pd21  1  -0.00000000  0.58175822  0.34356649  1
  Pd  Pd22  1  0.50000000  0.41824178  0.84356649  1
  Pd  Pd23  1  -0.00000000  0.58175822  0.65643351  1
