# generated using pymatgen
data_SmGa6
_symmetry_space_group_name_H-M   'P 1'
_cell_length_a   5.96033424
_cell_length_b   5.96033424
_cell_length_c   7.58028409
_cell_angle_alpha   90.00000000
_cell_angle_beta   90.00000000
_cell_angle_gamma   90.00000000
_symmetry_Int_Tables_number   1
_chemical_formula_structural   SmGa6
_chemical_formula_sum   'Sm2 Ga12'
_cell_volume   269.29402110
_cell_formula_units_Z   2
loop_
 _symmetry_equiv_pos_site_id
 _symmetry_equiv_pos_as_xyz
  1  'x, y, z'
loop_
 _atom_site_type_symbol
 _atom_site_label
 _atom_site_symmetry_multiplicity
 _atom_site_fract_x
 _atom_site_fract_y
 _atom_site_fract_z
 _atom_site_occupancy
  Sm  Sm0  1  0.75000000  0.25000000  0.00000000  1
  Sm  Sm1  1  0.25000000  0.75000000  0.00000000  1
  Ga  Ga2  1  0.75000000  0.75000000  0.16000380  1
  Ga  Ga3  1  0.25000000  0.25000000  0.16000380  1
  Ga  Ga4  1  0.25000000  0.25000000  0.83999620  1
  Ga  Ga5  1  0.75000000  0.75000000  0.83999620  1
  Ga  Ga6  1  0.05129232  0.94870768  0.34647344  1
  Ga  Ga7  1  0.55129232  0.05129232  0.34647344  1
  Ga  Ga8  1  0.94870768  0.44870768  0.34647344  1
  Ga  Ga9  1  0.44870768  0.55129232  0.34647344  1
  Ga  Ga10  1  0.94870768  0.05129232  0.65352656  1
  Ga  Ga11  1  0.44870768  0.94870768  0.65352656  1
  Ga  Ga12  1  0.05129232  0.55129232  0.65352656  1
  Ga  Ga13  1  0.55129232  0.44870768  0.65352656  1
