# generated using pymatgen
data_Ce(P3Ru)4
_symmetry_space_group_name_H-M   'P 1'
_cell_length_a   6.97608470
_cell_length_b   6.97608462
_cell_length_c   6.97608438
_cell_angle_alpha   109.47122585
_cell_angle_beta   109.47122554
_cell_angle_gamma   109.47122011
_symmetry_Int_Tables_number   1
_chemical_formula_structural   Ce(P3Ru)4
_chemical_formula_sum   'Ce1 P12 Ru4'
_cell_volume   261.34444139
_cell_formula_units_Z   1
loop_
 _symmetry_equiv_pos_site_id
 _symmetry_equiv_pos_as_xyz
  1  'x, y, z'
loop_
 _atom_site_type_symbol
 _atom_site_label
 _atom_site_symmetry_multiplicity
 _atom_site_fract_x
 _atom_site_fract_y
 _atom_site_fract_z
 _atom_site_occupancy
  Ce  Ce0  1  -0.00000000  -0.00000000  0.00000000  1
  P  P1  1  0.50012042  0.85666622  0.64345420  1
  P  P2  1  0.21321201  0.85666622  0.35654580  1
  P  P3  1  0.78678799  0.14333378  0.64345420  1
  P  P4  1  0.14333378  0.35654580  0.49987958  1
  P  P5  1  0.35654580  0.49987958  0.14333378  1
  P  P6  1  0.49987958  0.14333378  0.35654580  1
  P  P7  1  0.14333378  0.64345420  0.78678799  1
  P  P8  1  0.35654580  0.21321201  0.85666622  1
  P  P9  1  0.85666622  0.64345420  0.50012042  1
  P  P10  1  0.64345420  0.78678799  0.14333378  1
  P  P11  1  0.85666622  0.35654580  0.21321201  1
  P  P12  1  0.64345420  0.50012042  0.85666622  1
  Ru  Ru13  1  0.50000000  -0.00000000  0.00000000  1
  Ru  Ru14  1  -0.00000000  -0.00000000  0.50000000  1
  Ru  Ru15  1  -0.00000000  0.50000000  0.00000000  1
  Ru  Ru16  1  0.50000000  0.50000000  0.50000000  1
