# generated using pymatgen
data_TaNiTe2
_symmetry_space_group_name_H-M   'P 1'
_cell_length_a   6.27564489
_cell_length_b   7.55408332
_cell_length_c   7.94022577
_cell_angle_alpha   90.00000000
_cell_angle_beta   90.00000000
_cell_angle_gamma   90.00000000
_symmetry_Int_Tables_number   1
_chemical_formula_structural   TaNiTe2
_chemical_formula_sum   'Ta4 Ni4 Te8'
_cell_volume   376.42025344
_cell_formula_units_Z   4
loop_
 _symmetry_equiv_pos_site_id
 _symmetry_equiv_pos_as_xyz
  1  'x, y, z'
loop_
 _atom_site_type_symbol
 _atom_site_label
 _atom_site_symmetry_multiplicity
 _atom_site_fract_x
 _atom_site_fract_y
 _atom_site_fract_z
 _atom_site_occupancy
  Ta  Ta0  1  0.74992955  0.46410007  0.95705521  1
  Ta  Ta1  1  0.25007045  0.46410007  0.04294479  1
  Ta  Ta2  1  0.25007045  0.46410007  0.45705521  1
  Ta  Ta3  1  0.74992955  0.46410007  0.54294479  1
  Ni  Ni4  1  0.10830974  0.34974269  0.75000000  1
  Ni  Ni5  1  0.89169026  0.34974269  0.25000000  1
  Ni  Ni6  1  0.60793382  0.57877952  0.25000000  1
  Ni  Ni7  1  0.39206618  0.57877952  0.75000000  1
  Te  Te8  1  0.50307702  0.24896588  0.75000000  1
  Te  Te9  1  0.00000000  0.15641689  0.50000000  1
  Te  Te10  1  0.00314341  0.67923499  0.25000000  1
  Te  Te11  1  0.99685659  0.67923499  0.75000000  1
  Te  Te12  1  0.50000000  0.77186087  0.50000000  1
  Te  Te13  1  0.50000000  0.77186087  -0.00000000  1
  Te  Te14  1  0.00000000  0.15641689  -0.00000000  1
  Te  Te15  1  0.49692298  0.24896588  0.25000000  1
