# generated using pymatgen
data_Ce(FeAs3)4
_symmetry_space_group_name_H-M   'P 1'
_cell_length_a   7.15880416
_cell_length_b   7.15880416
_cell_length_c   7.15880416
_cell_angle_alpha   109.47122063
_cell_angle_beta   109.47122063
_cell_angle_gamma   109.47122063
_symmetry_Int_Tables_number   1
_chemical_formula_structural   Ce(FeAs3)4
_chemical_formula_sum   'Ce1 Fe4 As12'
_cell_volume   282.42267032
_cell_formula_units_Z   1
loop_
 _symmetry_equiv_pos_site_id
 _symmetry_equiv_pos_as_xyz
  1  'x, y, z'
loop_
 _atom_site_type_symbol
 _atom_site_label
 _atom_site_symmetry_multiplicity
 _atom_site_fract_x
 _atom_site_fract_y
 _atom_site_fract_z
 _atom_site_occupancy
  Ce  Ce0  1  0.00000000  -0.00000000  -0.00000000  1
  Fe  Fe1  1  0.50000000  0.50000000  0.50000000  1
  Fe  Fe2  1  0.50000000  -0.00000000  -0.00000000  1
  Fe  Fe3  1  0.00000000  0.50000000  -0.00000000  1
  Fe  Fe4  1  0.00000000  -0.00000000  0.50000000  1
  As  As5  1  0.84463558  0.65672244  0.50135602  1
  As  As6  1  0.15536442  0.34327756  0.49864398  1
  As  As7  1  0.15536442  0.65672144  0.81208785  1
  As  As8  1  0.84463558  0.34327856  0.18791215  1
  As  As9  1  0.65672344  0.50135602  0.84463558  1
  As  As10  1  0.34327656  0.49864398  0.15536442  1
  As  As11  1  0.65672244  0.81208685  0.15536442  1
  As  As12  1  0.34327756  0.18791315  0.84463558  1
  As  As13  1  0.50135602  0.84463558  0.65672244  1
  As  As14  1  0.49864398  0.15536442  0.34327756  1
  As  As15  1  0.81208785  0.15536642  0.65672344  1
  As  As16  1  0.18791215  0.84463358  0.34327656  1
