# generated using pymatgen
data_Ti2O3
_symmetry_space_group_name_H-M   'P 1'
_cell_length_a   2.83804573
_cell_length_b   7.82893291
_cell_length_c   8.14506917
_cell_angle_alpha   90.00000000
_cell_angle_beta   90.00000000
_cell_angle_gamma   90.00000000
_symmetry_Int_Tables_number   1
_chemical_formula_structural   Ti2O3
_chemical_formula_sum   'Ti8 O12'
_cell_volume   180.97422990
_cell_formula_units_Z   4
loop_
 _symmetry_equiv_pos_site_id
 _symmetry_equiv_pos_as_xyz
  1  'x, y, z'
loop_
 _atom_site_type_symbol
 _atom_site_label
 _atom_site_symmetry_multiplicity
 _atom_site_fract_x
 _atom_site_fract_y
 _atom_site_fract_z
 _atom_site_occupancy
  Ti  Ti0  1  0.75000000  0.46930850  0.81593348  1
  Ti  Ti1  1  0.75000000  0.96930850  0.68406652  1
  Ti  Ti2  1  0.25000000  0.53069150  0.18406652  1
  Ti  Ti3  1  0.25000000  0.03069150  0.31593348  1
  Ti  Ti4  1  0.75000000  0.30355344  0.48091613  1
  Ti  Ti5  1  0.75000000  0.80355344  0.01908387  1
  Ti  Ti6  1  0.25000000  0.69644656  0.51908387  1
  Ti  Ti7  1  0.25000000  0.19644656  0.98091613  1
  O  O8  1  0.75000000  0.55781245  0.37548407  1
  O  O9  1  0.75000000  0.05781245  0.12451593  1
  O  O10  1  0.25000000  0.44218755  0.62451593  1
  O  O11  1  0.25000000  0.94218755  0.87548407  1
  O  O12  1  0.75000000  0.37881831  0.05283368  1
  O  O13  1  0.75000000  0.87881831  0.44716632  1
  O  O14  1  0.25000000  0.62118169  0.94716532  1
  O  O15  1  0.25000000  0.12118169  0.55283468  1
  O  O16  1  0.75000000  0.70694910  0.69047191  1
  O  O17  1  0.75000000  0.20694910  0.80952809  1
  O  O18  1  0.25000000  0.29305090  0.30952809  1
  O  O19  1  0.25000000  0.79305090  0.19047191  1
