# generated using pymatgen
data_Ba2ZnSb2
_symmetry_space_group_name_H-M   'P 1'
_cell_length_a   7.03461276
_cell_length_b   7.26729743
_cell_length_c   8.75070885
_cell_angle_alpha   114.53445904
_cell_angle_beta   113.69984938
_cell_angle_gamma   90.00000000
_symmetry_Int_Tables_number   1
_chemical_formula_structural   Ba2ZnSb2
_chemical_formula_sum   'Ba4 Zn2 Sb4'
_cell_volume   365.08876354
_cell_formula_units_Z   2
loop_
 _symmetry_equiv_pos_site_id
 _symmetry_equiv_pos_as_xyz
  1  'x, y, z'
loop_
 _atom_site_type_symbol
 _atom_site_label
 _atom_site_symmetry_multiplicity
 _atom_site_fract_x
 _atom_site_fract_y
 _atom_site_fract_z
 _atom_site_occupancy
  Ba  Ba0  1  0.86332990  0.06717833  0.72666081  1
  Ba  Ba1  1  0.13667010  0.93282167  0.27333919  1
  Ba  Ba2  1  0.63667010  0.34051653  0.27333919  1
  Ba  Ba3  1  0.36332990  0.65948247  0.72666081  1
  Zn  Zn4  1  0.75000000  0.50000000  0.00000000  1
  Zn  Zn5  1  0.25000000  0.50000000  0.00000000  1
  Sb  Sb6  1  0.61020868  0.81500650  0.22041537  1
  Sb  Sb7  1  0.38979132  0.18499350  0.77958463  1
  Sb  Sb8  1  0.88979132  0.59459013  0.77958463  1
  Sb  Sb9  1  0.11020868  0.40540987  0.22041537  1
