# generated using pymatgen
data_CeSi2Ag
_symmetry_space_group_name_H-M   'P 1'
_cell_length_a   9.02911550
_cell_length_b   9.02911550
_cell_length_c   4.21336433
_cell_angle_alpha   90.00000000
_cell_angle_beta   90.00000000
_cell_angle_gamma   152.87401051
_symmetry_Int_Tables_number   1
_chemical_formula_structural   CeSi2Ag
_chemical_formula_sum   'Ce2 Si4 Ag2'
_cell_volume   156.61572934
_cell_formula_units_Z   2
loop_
 _symmetry_equiv_pos_site_id
 _symmetry_equiv_pos_as_xyz
  1  'x, y, z'
loop_
 _atom_site_type_symbol
 _atom_site_label
 _atom_site_symmetry_multiplicity
 _atom_site_fract_x
 _atom_site_fract_y
 _atom_site_fract_z
 _atom_site_occupancy
  Ce  Ce0  1  0.59653289  0.40346711  0.25000000  1
  Ce  Ce1  1  0.40346711  0.59653289  0.75000000  1
  Si  Si2  1  0.96801819  0.03198181  0.25000000  1
  Si  Si3  1  0.03198181  0.96801819  0.75000000  1
  Si  Si4  1  0.83620570  0.16379430  0.25000000  1
  Si  Si5  1  0.16379430  0.83620570  0.75000000  1
  Ag  Ag6  1  0.25177111  0.74822889  0.25000000  1
  Ag  Ag7  1  0.74822889  0.25177111  0.75000000  1
