# generated using pymatgen
data_HfVSi
_symmetry_space_group_name_H-M   'P 1'
_cell_length_a   3.64748886
_cell_length_b   3.64748886
_cell_length_c   7.13896844
_cell_angle_alpha   90.00000000
_cell_angle_beta   90.00000000
_cell_angle_gamma   90.00000000
_symmetry_Int_Tables_number   1
_chemical_formula_structural   HfVSi
_chemical_formula_sum   'Hf2 V2 Si2'
_cell_volume   94.97808533
_cell_formula_units_Z   2
loop_
 _symmetry_equiv_pos_site_id
 _symmetry_equiv_pos_as_xyz
  1  'x, y, z'
loop_
 _atom_site_type_symbol
 _atom_site_label
 _atom_site_symmetry_multiplicity
 _atom_site_fract_x
 _atom_site_fract_y
 _atom_site_fract_z
 _atom_site_occupancy
  Hf  Hf0  1  0.75000000  0.75000000  0.36036877  1
  Hf  Hf1  1  0.25000000  0.25000000  0.63963123  1
  V  V2  1  0.75000000  0.25000000  0.00000000  1
  V  V3  1  0.25000000  0.75000000  0.00000000  1
  Si  Si4  1  0.75000000  0.75000000  0.75284077  1
  Si  Si5  1  0.25000000  0.25000000  0.24715923  1
