# generated using pymatgen
data_AlCoO3
_symmetry_space_group_name_H-M   'P 1'
_cell_length_a   4.85975400
_cell_length_b   4.87726982
_cell_length_c   5.18667464
_cell_angle_alpha   116.18739063
_cell_angle_beta   89.94434658
_cell_angle_gamma   118.68777878
_symmetry_Int_Tables_number   1
_chemical_formula_structural   AlCoO3
_chemical_formula_sum   'Al2 Co2 O6'
_cell_volume   93.23909211
_cell_formula_units_Z   2
loop_
 _symmetry_equiv_pos_site_id
 _symmetry_equiv_pos_as_xyz
  1  'x, y, z'
loop_
 _atom_site_type_symbol
 _atom_site_label
 _atom_site_symmetry_multiplicity
 _atom_site_fract_x
 _atom_site_fract_y
 _atom_site_fract_z
 _atom_site_occupancy
  Al  Al0  1  0.84619300  0.15513300  0.54410200  1
  Al  Al1  1  0.15380700  0.84486700  0.45589800  1
  Co  Co2  1  0.35112000  0.65534900  0.05230800  1
  Co  Co3  1  0.64888000  0.34465100  0.94769200  1
  O  O4  1  0.44279000  0.24232300  0.26298000  1
  O  O5  1  0.23215000  0.04376400  0.74365500  1
  O  O6  1  0.07487700  0.56525400  0.26698100  1
  O  O7  1  0.92512300  0.43474600  0.73301900  1
  O  O8  1  0.76785000  0.95623600  0.25634500  1
  O  O9  1  0.55721000  0.75767700  0.73702000  1
