# generated using pymatgen
data_HoGePd
_symmetry_space_group_name_H-M   'P 1'
_cell_length_a   4.33469532
_cell_length_b   7.47051927
_cell_length_c   13.83795286
_cell_angle_alpha   90.00000000
_cell_angle_beta   90.00000000
_cell_angle_gamma   90.00000000
_symmetry_Int_Tables_number   1
_chemical_formula_structural   HoGePd
_chemical_formula_sum   'Ho8 Ge8 Pd8'
_cell_volume   448.10646950
_cell_formula_units_Z   8
loop_
 _symmetry_equiv_pos_site_id
 _symmetry_equiv_pos_as_xyz
  1  'x, y, z'
loop_
 _atom_site_type_symbol
 _atom_site_label
 _atom_site_symmetry_multiplicity
 _atom_site_fract_x
 _atom_site_fract_y
 _atom_site_fract_z
 _atom_site_occupancy
  Ho  Ho0  1  0.25000000  0.78751452  0.49866571  1
  Ho  Ho1  1  0.25000000  0.78751452  0.00133429  1
  Ho  Ho2  1  0.75000000  0.21248548  0.50133429  1
  Ho  Ho3  1  0.75000000  0.21248548  0.99866571  1
  Ho  Ho4  1  0.25000000  0.70934770  0.75000000  1
  Ho  Ho5  1  0.75000000  0.29065230  0.25000000  1
  Ho  Ho6  1  0.25000000  0.70283403  0.25000000  1
  Ho  Ho7  1  0.75000000  0.29716597  0.75000000  1
  Ge  Ge8  1  0.25000000  0.40796606  0.39474721  1
  Ge  Ge9  1  0.25000000  0.40796606  0.10525279  1
  Ge  Ge10  1  0.75000000  0.59203394  0.60525279  1
  Ge  Ge11  1  0.75000000  0.59203394  0.89474721  1
  Ge  Ge12  1  0.25000000  0.09144026  0.84716130  1
  Ge  Ge13  1  0.25000000  0.09144026  0.65283870  1
  Ge  Ge14  1  0.75000000  0.90855974  0.15283870  1
  Ge  Ge15  1  0.75000000  0.90855974  0.34716130  1
  Pd  Pd16  1  0.25000000  0.07606876  0.35886161  1
  Pd  Pd17  1  0.25000000  0.07606876  0.14113839  1
  Pd  Pd18  1  0.75000000  0.92393124  0.64113839  1
  Pd  Pd19  1  0.75000000  0.92393124  0.85886161  1
  Pd  Pd20  1  0.25000000  0.41770973  0.90459620  1
  Pd  Pd21  1  0.25000000  0.41770973  0.59540380  1
  Pd  Pd22  1  0.75000000  0.58229027  0.09540380  1
  Pd  Pd23  1  0.75000000  0.58229027  0.40459620  1
