# generated using pymatgen
data_YAlPd
_symmetry_space_group_name_H-M   'P 1'
_cell_length_a   4.45669144
_cell_length_b   6.95941985
_cell_length_c   7.67219740
_cell_angle_alpha   90.00000000
_cell_angle_beta   90.00000000
_cell_angle_gamma   90.00000000
_symmetry_Int_Tables_number   1
_chemical_formula_structural   YAlPd
_chemical_formula_sum   'Y4 Al4 Pd4'
_cell_volume   237.96077384
_cell_formula_units_Z   4
loop_
 _symmetry_equiv_pos_site_id
 _symmetry_equiv_pos_as_xyz
  1  'x, y, z'
loop_
 _atom_site_type_symbol
 _atom_site_label
 _atom_site_symmetry_multiplicity
 _atom_site_fract_x
 _atom_site_fract_y
 _atom_site_fract_z
 _atom_site_occupancy
  Y  Y0  1  0.75000000  0.47156773  0.18277180  1
  Y  Y1  1  0.75000000  0.97156773  0.31722820  1
  Y  Y2  1  0.25000000  0.52843227  0.81722820  1
  Y  Y3  1  0.25000000  0.02843227  0.68277180  1
  Al  Al4  1  0.75000000  0.35134000  0.56556274  1
  Al  Al5  1  0.75000000  0.85134000  0.93443726  1
  Al  Al6  1  0.25000000  0.64866000  0.43443726  1
  Al  Al7  1  0.25000000  0.14866000  0.06556274  1
  Pd  Pd8  1  0.75000000  0.22218428  0.88643461  1
  Pd  Pd9  1  0.75000000  0.72218428  0.61356539  1
  Pd  Pd10  1  0.25000000  0.77781572  0.11356539  1
  Pd  Pd11  1  0.25000000  0.27781572  0.38643461  1
