# generated using pymatgen
data_Ca2PtAu
_symmetry_space_group_name_H-M   'P 1'
_cell_length_a   5.74325115
_cell_length_b   5.74325115
_cell_length_c   4.47844176
_cell_angle_alpha   90.00000000
_cell_angle_beta   90.00000000
_cell_angle_gamma   139.39071965
_symmetry_Int_Tables_number   1
_chemical_formula_structural   Ca2PtAu
_chemical_formula_sum   'Ca2 Pt1 Au1'
_cell_volume   96.15125217
_cell_formula_units_Z   1
loop_
 _symmetry_equiv_pos_site_id
 _symmetry_equiv_pos_as_xyz
  1  'x, y, z'
loop_
 _atom_site_type_symbol
 _atom_site_label
 _atom_site_symmetry_multiplicity
 _atom_site_fract_x
 _atom_site_fract_y
 _atom_site_fract_z
 _atom_site_occupancy
  Ca  Ca0  1  0.85973573  0.14026427  -0.00000000  1
  Ca  Ca1  1  0.14112358  0.85887642  0.50000000  1
  Pt  Pt2  1  0.42128457  0.57871543  0.50000000  1
  Au  Au3  1  0.57785611  0.42214389  0.00000000  1
