# generated using pymatgen
data_HoAl2Ni
_symmetry_space_group_name_H-M   'P 1'
_cell_length_a   4.01476555
_cell_length_b   5.45139570
_cell_length_c   6.83437356
_cell_angle_alpha   90.00000000
_cell_angle_beta   90.00000000
_cell_angle_gamma   111.60668313
_symmetry_Int_Tables_number   1
_chemical_formula_structural   HoAl2Ni
_chemical_formula_sum   'Ho2 Al4 Ni2'
_cell_volume   139.06732725
_cell_formula_units_Z   2
loop_
 _symmetry_equiv_pos_site_id
 _symmetry_equiv_pos_as_xyz
  1  'x, y, z'
loop_
 _atom_site_type_symbol
 _atom_site_label
 _atom_site_symmetry_multiplicity
 _atom_site_fract_x
 _atom_site_fract_y
 _atom_site_fract_z
 _atom_site_occupancy
  Ho  Ho0  1  0.93986237  0.87972475  0.25000000  1
  Ho  Ho1  1  0.06013763  0.12027525  0.75000000  1
  Al  Al2  1  0.34086627  0.68173254  0.94536666  1
  Al  Al3  1  0.65913373  0.31826746  0.05463334  1
  Al  Al4  1  0.65913373  0.31826746  0.44536666  1
  Al  Al5  1  0.34086627  0.68173254  0.55463334  1
  Ni  Ni6  1  0.21555658  0.43111517  0.25000000  1
  Ni  Ni7  1  0.78444342  0.56888483  0.75000000  1
