# generated using pymatgen
data_Y6NiI10
_symmetry_space_group_name_H-M   'P 1'
_cell_length_a   7.65468263
_cell_length_b   9.60376095
_cell_length_c   9.62518385
_cell_angle_alpha   107.26319296
_cell_angle_beta   96.93268665
_cell_angle_gamma   104.79305312
_symmetry_Int_Tables_number   1
_chemical_formula_structural   Y6NiI10
_chemical_formula_sum   'Y6 Ni1 I10'
_cell_volume   638.34795692
_cell_formula_units_Z   1
loop_
 _symmetry_equiv_pos_site_id
 _symmetry_equiv_pos_as_xyz
  1  'x, y, z'
loop_
 _atom_site_type_symbol
 _atom_site_label
 _atom_site_symmetry_multiplicity
 _atom_site_fract_x
 _atom_site_fract_y
 _atom_site_fract_z
 _atom_site_occupancy
  Y  Y0  1  0.88701402  0.95995751  0.23797332  1
  Y  Y1  1  0.11298598  0.04004249  0.76202668  1
  Y  Y2  1  0.03047631  0.71808175  0.91554488  1
  Y  Y3  1  0.96952369  0.28191825  0.08445512  1
  Y  Y4  1  0.65743661  0.87770393  0.83728177  1
  Y  Y5  1  0.34256339  0.12229607  0.16271823  1
  Ni  Ni6  1  0.00000000  -0.00000000  0.00000000  1
  I  I7  1  0.64442895  0.54491337  0.72588891  1
  I  I8  1  0.35557105  0.45508663  0.27411109  1
  I  I9  1  0.73785416  0.91085038  0.53506125  1
  I  I10  1  0.26214584  0.08914962  0.46493875  1
  I  I11  1  0.08689228  0.37318733  0.81714790  1
  I  I12  1  0.91310772  0.62681267  0.18285210  1
  I  I13  1  0.45308830  0.81290085  0.09401118  1
  I  I14  1  0.54691170  0.18709915  0.90598882  1
  I  I15  1  0.22185724  0.73970053  0.65025615  1
  I  I16  1  0.77814276  0.26029947  0.34974385  1
