# generated using pymatgen
data_Zr2(ZnGa)3
_symmetry_space_group_name_H-M   'P 1'
_cell_length_a   3.99435182
_cell_length_b   4.03265764
_cell_length_c   8.16630704
_cell_angle_alpha   90.00000000
_cell_angle_beta   90.00000000
_cell_angle_gamma   90.00000000
_symmetry_Int_Tables_number   1
_chemical_formula_structural   Zr2(ZnGa)3
_chemical_formula_sum   'Zr2 Zn3 Ga3'
_cell_volume   131.54167649
_cell_formula_units_Z   1
loop_
 _symmetry_equiv_pos_site_id
 _symmetry_equiv_pos_as_xyz
  1  'x, y, z'
loop_
 _atom_site_type_symbol
 _atom_site_label
 _atom_site_symmetry_multiplicity
 _atom_site_fract_x
 _atom_site_fract_y
 _atom_site_fract_z
 _atom_site_occupancy
  Zr  Zr0  1  -0.00000000  -0.00000000  0.75427051  1
  Zr  Zr1  1  -0.00000000  -0.00000000  0.24572949  1
  Zn  Zn2  1  0.50000000  -0.00000000  0.50000000  1
  Zn  Zn3  1  -0.00000000  0.50000000  -0.00000000  1
  Zn  Zn4  1  -0.00000000  0.50000000  0.50000000  1
  Ga  Ga5  1  0.50000000  0.50000000  0.74132457  1
  Ga  Ga6  1  0.50000000  0.50000000  0.25867543  1
  Ga  Ga7  1  0.50000000  -0.00000000  0.00000000  1
