# generated using pymatgen
data_CsCoO2
_symmetry_space_group_name_H-M   'P 1'
_cell_length_a   5.98211398
_cell_length_b   5.98208680
_cell_length_c   5.98195542
_cell_angle_alpha   119.99876814
_cell_angle_beta   60.00088956
_cell_angle_gamma   89.99883621
_symmetry_Int_Tables_number   1
_chemical_formula_structural   CsCoO2
_chemical_formula_sum   'Cs2 Co2 O4'
_cell_volume   151.37183743
_cell_formula_units_Z   2
loop_
 _symmetry_equiv_pos_site_id
 _symmetry_equiv_pos_as_xyz
  1  'x, y, z'
loop_
 _atom_site_type_symbol
 _atom_site_label
 _atom_site_symmetry_multiplicity
 _atom_site_fract_x
 _atom_site_fract_y
 _atom_site_fract_z
 _atom_site_occupancy
  Cs  Cs0  1  0.49999999  0.49999999  0.99999900  1
  Cs  Cs1  1  0.24999895  0.24999895  0.50000100  1
  Co  Co2  1  0.75000796  0.75000796  0.50000100  1
  Co  Co3  1  -0.00000865  0.99999035  0.99999900  1
  O  O4  1  0.87500076  0.37501329  0.25000561  1
  O  O5  1  0.87499796  0.87499075  0.25000476  1
  O  O6  1  0.87498975  0.87499896  0.74999524  1
  O  O7  1  0.37501329  0.87499976  0.74999439  1
