# generated using pymatgen
data_SrCdPb
_symmetry_space_group_name_H-M   'P 1'
_cell_length_a   6.45825164
_cell_length_b   6.45825164
_cell_length_c   8.16544283
_cell_angle_alpha   53.01669741
_cell_angle_beta   53.01669741
_cell_angle_gamma   46.07197429
_symmetry_Int_Tables_number   1
_chemical_formula_structural   SrCdPb
_chemical_formula_sum   'Sr2 Cd2 Pb2'
_cell_volume   185.61788190
_cell_formula_units_Z   2
loop_
 _symmetry_equiv_pos_site_id
 _symmetry_equiv_pos_as_xyz
  1  'x, y, z'
loop_
 _atom_site_type_symbol
 _atom_site_label
 _atom_site_symmetry_multiplicity
 _atom_site_fract_x
 _atom_site_fract_y
 _atom_site_fract_z
 _atom_site_occupancy
  Sr  Sr0  1  0.45518920  0.45518920  0.79921142  1
  Sr  Sr1  1  0.54481080  0.54481080  0.20078858  1
  Cd  Cd2  1  0.84806628  0.84806628  0.59042728  1
  Cd  Cd3  1  0.15193372  0.15193372  0.40957272  1
  Pb  Pb4  1  0.16825712  0.16825712  0.78111911  1
  Pb  Pb5  1  0.83174288  0.83174288  0.21888089  1
