# generated using pymatgen
data_NdCrO4
_symmetry_space_group_name_H-M   'P 1'
_cell_length_a   6.09544625
_cell_length_b   6.09544817
_cell_length_c   6.09544674
_cell_angle_alpha   106.00471200
_cell_angle_beta   106.00471841
_cell_angle_gamma   116.65176933
_symmetry_Int_Tables_number   1
_chemical_formula_structural   NdCrO4
_chemical_formula_sum   'Nd2 Cr2 O8'
_cell_volume   172.26091549
_cell_formula_units_Z   2
loop_
 _symmetry_equiv_pos_site_id
 _symmetry_equiv_pos_as_xyz
  1  'x, y, z'
loop_
 _atom_site_type_symbol
 _atom_site_label
 _atom_site_symmetry_multiplicity
 _atom_site_fract_x
 _atom_site_fract_y
 _atom_site_fract_z
 _atom_site_occupancy
  Nd  Nd0  1  0.12500000  0.87500000  0.25000000  1
  Nd  Nd1  1  0.87500000  0.12500000  0.75000000  1
  Cr  Cr2  1  0.37500000  0.62500000  0.75000000  1
  Cr  Cr3  1  0.62500000  0.37500000  0.25000000  1
  O  O4  1  0.79459955  0.72256676  0.42796821  1
  O  O5  1  0.36351689  0.79332593  0.57018895  1
  O  O6  1  0.72313798  0.79332693  0.92981105  1
  O  O7  1  0.79459955  0.36663234  0.07203279  1
  O  O8  1  0.63336766  0.20540045  0.42796721  1
  O  O9  1  0.20667307  0.27686202  0.57018895  1
  O  O10  1  0.20667407  0.63648311  0.92981105  1
  O  O11  1  0.27743324  0.20540145  0.07203279  1
