# generated using pymatgen
data_MnCdTe2
_symmetry_space_group_name_H-M   'P 1'
_cell_length_a   7.87966523
_cell_length_b   7.87966523
_cell_length_c   7.87966497
_cell_angle_alpha   33.78950131
_cell_angle_beta   33.78950131
_cell_angle_gamma   33.78949943
_symmetry_Int_Tables_number   1
_chemical_formula_structural   MnCdTe2
_chemical_formula_sum   'Mn1 Cd1 Te2'
_cell_volume   134.83605473
_cell_formula_units_Z   1
loop_
 _symmetry_equiv_pos_site_id
 _symmetry_equiv_pos_as_xyz
  1  'x, y, z'
loop_
 _atom_site_type_symbol
 _atom_site_label
 _atom_site_symmetry_multiplicity
 _atom_site_fract_x
 _atom_site_fract_y
 _atom_site_fract_z
 _atom_site_occupancy
  Mn  Mn0  1  0.49887090  0.49887090  0.49887090  1
  Cd  Cd1  1  0.00078545  0.00078545  0.00078545  1
  Te  Te2  1  0.12831267  0.12831267  0.12831267  1
  Te  Te3  1  0.62203099  0.62203099  0.62203099  1
