# generated using pymatgen
data_Ho6Zn23
_symmetry_space_group_name_H-M   'P 1'
_cell_length_a   8.84876198
_cell_length_b   8.84876198
_cell_length_c   8.84876198
_cell_angle_alpha   60.00000000
_cell_angle_beta   60.00000000
_cell_angle_gamma   60.00000000
_symmetry_Int_Tables_number   1
_chemical_formula_structural   Ho6Zn23
_chemical_formula_sum   'Ho6 Zn23'
_cell_volume   489.92831725
_cell_formula_units_Z   1
loop_
 _symmetry_equiv_pos_site_id
 _symmetry_equiv_pos_as_xyz
  1  'x, y, z'
loop_
 _atom_site_type_symbol
 _atom_site_label
 _atom_site_symmetry_multiplicity
 _atom_site_fract_x
 _atom_site_fract_y
 _atom_site_fract_z
 _atom_site_occupancy
  Ho  Ho0  1  0.70722771  0.70722771  0.29277229  1
  Ho  Ho1  1  0.29277229  0.70722771  0.29277229  1
  Ho  Ho2  1  0.70722771  0.29277229  0.29277229  1
  Ho  Ho3  1  0.29277229  0.29277229  0.70722771  1
  Ho  Ho4  1  0.70722771  0.29277229  0.70722771  1
  Ho  Ho5  1  0.29277229  0.70722771  0.70722771  1
  Zn  Zn6  1  -0.00000000  0.00000000  0.00000000  1
  Zn  Zn7  1  -0.00000000  0.00000000  0.50000000  1
  Zn  Zn8  1  0.50000000  0.00000000  0.50000000  1
  Zn  Zn9  1  -0.00000000  0.50000000  0.50000000  1
  Zn  Zn10  1  0.50000000  0.50000000  0.00000000  1
  Zn  Zn11  1  -0.00000000  0.50000000  0.00000000  1
  Zn  Zn12  1  0.50000000  0.00000000  0.00000000  1
  Zn  Zn13  1  0.87686587  0.87686587  0.36940038  1
  Zn  Zn14  1  0.87686587  0.36940038  0.87686587  1
  Zn  Zn15  1  0.36940038  0.87686587  0.87686587  1
  Zn  Zn16  1  0.87686587  0.87686587  0.87686587  1
  Zn  Zn17  1  0.12313413  0.12313413  0.63059962  1
  Zn  Zn18  1  0.12313413  0.63059962  0.12313413  1
  Zn  Zn19  1  0.63059962  0.12313413  0.12313413  1
  Zn  Zn20  1  0.12313413  0.12313413  0.12313413  1
  Zn  Zn21  1  0.67202967  0.67202967  0.98391100  1
  Zn  Zn22  1  0.67202967  0.98391100  0.67202967  1
  Zn  Zn23  1  0.98391100  0.67202967  0.67202967  1
  Zn  Zn24  1  0.67202967  0.67202967  0.67202967  1
  Zn  Zn25  1  0.32797033  0.32797033  0.01608900  1
  Zn  Zn26  1  0.32797033  0.01608900  0.32797033  1
  Zn  Zn27  1  0.01608900  0.32797033  0.32797033  1
  Zn  Zn28  1  0.32797033  0.32797033  0.32797033  1
