# generated using pymatgen
data_La(AsIr)2
_symmetry_space_group_name_H-M   'P 1'
_cell_length_a   4.32038598
_cell_length_b   4.32038598
_cell_length_c   10.02343822
_cell_angle_alpha   90.00000000
_cell_angle_beta   90.00000000
_cell_angle_gamma   90.00000000
_symmetry_Int_Tables_number   1
_chemical_formula_structural   La(AsIr)2
_chemical_formula_sum   'La2 As4 Ir4'
_cell_volume   187.09484177
_cell_formula_units_Z   2
loop_
 _symmetry_equiv_pos_site_id
 _symmetry_equiv_pos_as_xyz
  1  'x, y, z'
loop_
 _atom_site_type_symbol
 _atom_site_label
 _atom_site_symmetry_multiplicity
 _atom_site_fract_x
 _atom_site_fract_y
 _atom_site_fract_z
 _atom_site_occupancy
  La  La0  1  -0.00000000  0.50000000  0.24704390  1
  La  La1  1  0.50000000  -0.00000000  0.75296146  1
  As  As2  1  0.00000000  -0.00000000  0.00000950  1
  As  As3  1  0.50000000  0.50000000  0.00000950  1
  As  As4  1  -0.00000000  0.50000000  0.63891703  1
  As  As5  1  0.50000000  -0.00000000  0.36104876  1
  Ir  Ir6  1  -0.00000000  0.00000000  0.49999104  1
  Ir  Ir7  1  0.50000000  0.50000000  0.49999104  1
  Ir  Ir8  1  0.00000000  0.50000000  0.88373906  1
  Ir  Ir9  1  0.50000000  0.00000000  0.11629071  1
