# generated using pymatgen
data_TmAlPd
_symmetry_space_group_name_H-M   'P 1'
_cell_length_a   4.38350356
_cell_length_b   6.79490856
_cell_length_c   7.69803028
_cell_angle_alpha   90.00000000
_cell_angle_beta   90.00000000
_cell_angle_gamma   90.00000000
_symmetry_Int_Tables_number   1
_chemical_formula_structural   TmAlPd
_chemical_formula_sum   'Tm4 Al4 Pd4'
_cell_volume   229.28972604
_cell_formula_units_Z   4
loop_
 _symmetry_equiv_pos_site_id
 _symmetry_equiv_pos_as_xyz
  1  'x, y, z'
loop_
 _atom_site_type_symbol
 _atom_site_label
 _atom_site_symmetry_multiplicity
 _atom_site_fract_x
 _atom_site_fract_y
 _atom_site_fract_z
 _atom_site_occupancy
  Tm  Tm0  1  0.75000000  0.46787343  0.17964953  1
  Tm  Tm1  1  0.75000000  0.96787343  0.32035047  1
  Tm  Tm2  1  0.25000000  0.53212657  0.82035047  1
  Tm  Tm3  1  0.25000000  0.03212657  0.67964953  1
  Al  Al4  1  0.75000000  0.35708044  0.56087259  1
  Al  Al5  1  0.75000000  0.85708044  0.93912741  1
  Al  Al6  1  0.25000000  0.64291956  0.43912741  1
  Al  Al7  1  0.25000000  0.14291956  0.06087259  1
  Pd  Pd8  1  0.75000000  0.23056427  0.87961391  1
  Pd  Pd9  1  0.75000000  0.73056427  0.62038609  1
  Pd  Pd10  1  0.25000000  0.76943573  0.12038609  1
  Pd  Pd11  1  0.25000000  0.26943573  0.37961391  1
