# generated using pymatgen
data_Nd2CdCu2
_symmetry_space_group_name_H-M   'P 1'
_cell_length_a   3.72559413
_cell_length_b   4.25674878
_cell_length_c   7.54330051
_cell_angle_alpha   106.38881997
_cell_angle_beta   90.00000000
_cell_angle_gamma   90.00000000
_symmetry_Int_Tables_number   1
_chemical_formula_structural   Nd2CdCu2
_chemical_formula_sum   'Nd2 Cd1 Cu2'
_cell_volume   114.76796308
_cell_formula_units_Z   1
loop_
 _symmetry_equiv_pos_site_id
 _symmetry_equiv_pos_as_xyz
  1  'x, y, z'
loop_
 _atom_site_type_symbol
 _atom_site_label
 _atom_site_symmetry_multiplicity
 _atom_site_fract_x
 _atom_site_fract_y
 _atom_site_fract_z
 _atom_site_occupancy
  Nd  Nd0  1  0.00000000  0.63338193  0.26676386  1
  Nd  Nd1  1  0.00000000  0.36661807  0.73323614  1
  Cd  Cd2  1  0.50000000  -0.00000000  -0.00000000  1
  Cu  Cu3  1  0.50000000  0.79662189  0.59324477  1
  Cu  Cu4  1  0.50000000  0.20337811  0.40675523  1
