# generated using pymatgen
data_SrTl2Pt
_symmetry_space_group_name_H-M   'P 1'
_cell_length_a   6.01796207
_cell_length_b   6.01796207
_cell_length_c   8.36382692
_cell_angle_alpha   90.00000000
_cell_angle_beta   90.00000000
_cell_angle_gamma   136.91256053
_symmetry_Int_Tables_number   1
_chemical_formula_structural   SrTl2Pt
_chemical_formula_sum   'Sr2 Tl4 Pt2'
_cell_volume   206.91735472
_cell_formula_units_Z   2
loop_
 _symmetry_equiv_pos_site_id
 _symmetry_equiv_pos_as_xyz
  1  'x, y, z'
loop_
 _atom_site_type_symbol
 _atom_site_label
 _atom_site_symmetry_multiplicity
 _atom_site_fract_x
 _atom_site_fract_y
 _atom_site_fract_z
 _atom_site_occupancy
  Sr  Sr0  1  0.56503618  0.43496382  0.25000000  1
  Sr  Sr1  1  0.43496382  0.56503618  0.75000000  1
  Tl  Tl2  1  0.85389666  0.14610334  0.05112401  1
  Tl  Tl3  1  0.14610334  0.85389666  0.94887599  1
  Tl  Tl4  1  0.14610334  0.85389666  0.55112401  1
  Tl  Tl5  1  0.85389666  0.14610334  0.44887599  1
  Pt  Pt6  1  0.27872435  0.72127565  0.25000000  1
  Pt  Pt7  1  0.72127565  0.27872435  0.75000000  1
