# generated using pymatgen
data_HoCoGe2
_symmetry_space_group_name_H-M   'P 1'
_cell_length_a   8.49091844
_cell_length_b   8.49091844
_cell_length_c   4.09093427
_cell_angle_alpha   90.00000000
_cell_angle_beta   90.00000000
_cell_angle_gamma   152.06248795
_symmetry_Int_Tables_number   1
_chemical_formula_structural   HoCoGe2
_chemical_formula_sum   'Ho2 Co2 Ge4'
_cell_volume   138.18126062
_cell_formula_units_Z   2
loop_
 _symmetry_equiv_pos_site_id
 _symmetry_equiv_pos_as_xyz
  1  'x, y, z'
loop_
 _atom_site_type_symbol
 _atom_site_label
 _atom_site_symmetry_multiplicity
 _atom_site_fract_x
 _atom_site_fract_y
 _atom_site_fract_z
 _atom_site_occupancy
  Ho  Ho0  1  0.88971533  0.11028467  0.25000000  1
  Ho  Ho1  1  0.11028467  0.88971533  0.75000000  1
  Co  Co2  1  0.68034237  0.31965763  0.25000000  1
  Co  Co3  1  0.31965763  0.68034237  0.75000000  1
  Ge  Ge4  1  0.54491676  0.45508324  0.25000000  1
  Ge  Ge5  1  0.45508324  0.54491676  0.75000000  1
  Ge  Ge6  1  0.25073852  0.74926148  0.25000000  1
  Ge  Ge7  1  0.74926148  0.25073852  0.75000000  1
