# generated using pymatgen
data_BaCaGe
_symmetry_space_group_name_H-M   'P 1'
_cell_length_a   5.09783764
_cell_length_b   8.61706974
_cell_length_c   9.18431991
_cell_angle_alpha   90.00000000
_cell_angle_beta   90.00000000
_cell_angle_gamma   90.00000000
_symmetry_Int_Tables_number   1
_chemical_formula_structural   BaCaGe
_chemical_formula_sum   'Ba4 Ca4 Ge4'
_cell_volume   403.45268508
_cell_formula_units_Z   4
loop_
 _symmetry_equiv_pos_site_id
 _symmetry_equiv_pos_as_xyz
  1  'x, y, z'
loop_
 _atom_site_type_symbol
 _atom_site_label
 _atom_site_symmetry_multiplicity
 _atom_site_fract_x
 _atom_site_fract_y
 _atom_site_fract_z
 _atom_site_occupancy
  Ba  Ba0  1  0.25000000  0.02722293  0.82444969  1
  Ba  Ba1  1  0.75000000  0.97277707  0.17555031  1
  Ba  Ba2  1  0.25000000  0.52722293  0.67555031  1
  Ba  Ba3  1  0.75000000  0.47277707  0.32444969  1
  Ca  Ca4  1  0.75000000  0.85907110  0.57465360  1
  Ca  Ca5  1  0.25000000  0.64092890  0.07465360  1
  Ca  Ca6  1  0.75000000  0.35907110  0.92534640  1
  Ca  Ca7  1  0.25000000  0.14092890  0.42534640  1
  Ge  Ge8  1  0.25000000  0.28224026  0.10835484  1
  Ge  Ge9  1  0.75000000  0.21775974  0.60835484  1
  Ge  Ge10  1  0.25000000  0.78224026  0.39164516  1
  Ge  Ge11  1  0.75000000  0.71775974  0.89164516  1
