# generated using pymatgen
data_CeOs2
_symmetry_space_group_name_H-M   'P 1'
_cell_length_a   5.30950339
_cell_length_b   5.30950339
_cell_length_c   9.00161713
_cell_angle_alpha   90.00000000
_cell_angle_beta   90.00000000
_cell_angle_gamma   119.99985334
_symmetry_Int_Tables_number   1
_chemical_formula_structural   CeOs2
_chemical_formula_sum   'Ce4 Os8'
_cell_volume   219.76555053
_cell_formula_units_Z   4
loop_
 _symmetry_equiv_pos_site_id
 _symmetry_equiv_pos_as_xyz
  1  'x, y, z'
loop_
 _atom_site_type_symbol
 _atom_site_label
 _atom_site_symmetry_multiplicity
 _atom_site_fract_x
 _atom_site_fract_y
 _atom_site_fract_z
 _atom_site_occupancy
  Ce  Ce0  1  0.66667502  0.33332498  0.57038769  1
  Ce  Ce1  1  0.33332498  0.66667502  0.42961231  1
  Ce  Ce2  1  0.33332498  0.66667502  0.07038769  1
  Ce  Ce3  1  0.66667502  0.33332498  0.92961231  1
  Os  Os4  1  0.00000000  0.00000000  0.50000000  1
  Os  Os5  1  0.00000000  0.00000000  -0.00000000  1
  Os  Os6  1  0.17030084  0.34055523  0.75000000  1
  Os  Os7  1  0.17030828  0.82969172  0.75000000  1
  Os  Os8  1  0.65944477  0.82969916  0.75000000  1
  Os  Os9  1  0.82969916  0.65944477  0.25000000  1
  Os  Os10  1  0.82969172  0.17030828  0.25000000  1
  Os  Os11  1  0.34055523  0.17030084  0.25000000  1
