# generated using pymatgen
data_DyGaAg
_symmetry_space_group_name_H-M   'P 1'
_cell_length_a   5.67878441
_cell_length_b   5.67878441
_cell_length_c   7.13744274
_cell_angle_alpha   52.21365739
_cell_angle_beta   52.21365739
_cell_angle_gamma   46.77823160
_symmetry_Int_Tables_number   1
_chemical_formula_structural   DyGaAg
_chemical_formula_sum   'Dy2 Ga2 Ag2'
_cell_volume   124.88139204
_cell_formula_units_Z   2
loop_
 _symmetry_equiv_pos_site_id
 _symmetry_equiv_pos_as_xyz
  1  'x, y, z'
loop_
 _atom_site_type_symbol
 _atom_site_label
 _atom_site_symmetry_multiplicity
 _atom_site_fract_x
 _atom_site_fract_y
 _atom_site_fract_z
 _atom_site_occupancy
  Dy  Dy0  1  0.53343673  0.53343673  0.70979562  1
  Dy  Dy1  1  0.46656327  0.46656327  0.29020438  1
  Ga  Ga2  1  0.84181005  0.84181005  0.11829696  1
  Ga  Ga3  1  0.15818995  0.15818995  0.88170304  1
  Ag  Ag4  1  0.17330600  0.17330600  0.27883860  1
  Ag  Ag5  1  0.82669400  0.82669400  0.72116140  1
