# generated using pymatgen
data_HfSiW
_symmetry_space_group_name_H-M   'P 1'
_cell_length_a   3.49580126
_cell_length_b   6.91400873
_cell_length_c   8.15300933
_cell_angle_alpha   90.00000000
_cell_angle_beta   90.00000000
_cell_angle_gamma   90.00000000
_symmetry_Int_Tables_number   1
_chemical_formula_structural   HfSiW
_chemical_formula_sum   'Hf4 Si4 W4'
_cell_volume   197.05823901
_cell_formula_units_Z   4
loop_
 _symmetry_equiv_pos_site_id
 _symmetry_equiv_pos_as_xyz
  1  'x, y, z'
loop_
 _atom_site_type_symbol
 _atom_site_label
 _atom_site_symmetry_multiplicity
 _atom_site_fract_x
 _atom_site_fract_y
 _atom_site_fract_z
 _atom_site_occupancy
  Hf  Hf0  1  0.25000000  0.54212596  0.16667382  1
  Hf  Hf1  1  0.25000000  0.04212596  0.33332618  1
  Hf  Hf2  1  0.75000000  0.45787404  0.83332618  1
  Hf  Hf3  1  0.75000000  0.95787404  0.66667382  1
  Si  Si4  1  0.25000000  0.75609328  0.86013668  1
  Si  Si5  1  0.25000000  0.25609328  0.63986332  1
  Si  Si6  1  0.75000000  0.24390672  0.13986332  1
  Si  Si7  1  0.75000000  0.74390672  0.36013668  1
  W  W8  1  0.25000000  0.63341077  0.56071673  1
  W  W9  1  0.25000000  0.13341077  0.93928327  1
  W  W10  1  0.75000000  0.36658923  0.43928327  1
  W  W11  1  0.75000000  0.86658923  0.06071673  1
