# generated using pymatgen
data_EuAl
_symmetry_space_group_name_H-M   'P 1'
_cell_length_a   6.58068202
_cell_length_b   6.58068202
_cell_length_c   4.62599912
_cell_angle_alpha   90.00000000
_cell_angle_beta   90.00000000
_cell_angle_gamma   146.23280079
_symmetry_Int_Tables_number   1
_chemical_formula_structural   EuAl
_chemical_formula_sum   'Eu2 Al2'
_cell_volume   111.34773137
_cell_formula_units_Z   2
loop_
 _symmetry_equiv_pos_site_id
 _symmetry_equiv_pos_as_xyz
  1  'x, y, z'
loop_
 _atom_site_type_symbol
 _atom_site_label
 _atom_site_symmetry_multiplicity
 _atom_site_fract_x
 _atom_site_fract_y
 _atom_site_fract_z
 _atom_site_occupancy
  Eu  Eu0  1  0.34158404  0.65841596  0.75000000  1
  Eu  Eu1  1  0.65841596  0.34158404  0.25000000  1
  Al  Al2  1  0.05729586  0.94270414  0.75000000  1
  Al  Al3  1  0.94270414  0.05729586  0.25000000  1
