# generated using pymatgen
data_Rb2Zn5As4
_symmetry_space_group_name_H-M   'P 1'
_cell_length_a   6.82005383
_cell_length_b   6.82005383
_cell_length_c   11.74564140
_cell_angle_alpha   90.00000000
_cell_angle_beta   90.00000000
_cell_angle_gamma   117.26470828
_symmetry_Int_Tables_number   1
_chemical_formula_structural   Rb2Zn5As4
_chemical_formula_sum   'Rb4 Zn10 As8'
_cell_volume   485.62947632
_cell_formula_units_Z   2
loop_
 _symmetry_equiv_pos_site_id
 _symmetry_equiv_pos_as_xyz
  1  'x, y, z'
loop_
 _atom_site_type_symbol
 _atom_site_label
 _atom_site_symmetry_multiplicity
 _atom_site_fract_x
 _atom_site_fract_y
 _atom_site_fract_z
 _atom_site_occupancy
  Rb  Rb0  1  0.21690257  0.78309743  0.50000000  1
  Rb  Rb1  1  0.21690257  0.78309743  0.00000000  1
  Rb  Rb2  1  0.78309743  0.21690257  0.50000000  1
  Rb  Rb3  1  0.78309743  0.21690257  0.00000000  1
  Zn  Zn4  1  0.52826486  0.24032708  0.25000000  1
  Zn  Zn5  1  0.75967292  0.47173514  0.75000000  1
  Zn  Zn6  1  0.47173514  0.75967292  0.75000000  1
  Zn  Zn7  1  0.24032708  0.52826486  0.25000000  1
  Zn  Zn8  1  0.65447659  0.65447659  0.39177804  1
  Zn  Zn9  1  0.34552341  0.34552341  0.60822196  1
  Zn  Zn10  1  0.65447659  0.65447659  0.10822196  1
  Zn  Zn11  1  0.34552341  0.34552341  0.89177804  1
  Zn  Zn12  1  0.01043099  0.01043099  0.25000000  1
  Zn  Zn13  1  0.98956901  0.98956901  0.75000000  1
  As  As14  1  0.60168446  0.91378820  0.25000000  1
  As  As15  1  0.08621180  0.39831554  0.75000000  1
  As  As16  1  0.39831554  0.08621180  0.75000000  1
  As  As17  1  0.91378820  0.60168446  0.25000000  1
  As  As18  1  0.28123559  0.28123559  0.40051185  1
  As  As19  1  0.71876441  0.71876441  0.59948815  1
  As  As20  1  0.28123559  0.28123559  0.09948815  1
  As  As21  1  0.71876441  0.71876441  0.90051185  1
