# generated using pymatgen
data_TiGeIr
_symmetry_space_group_name_H-M   'P 1'
_cell_length_a   3.94684421
_cell_length_b   6.29461026
_cell_length_c   7.36967752
_cell_angle_alpha   90.00000000
_cell_angle_beta   90.00000000
_cell_angle_gamma   90.00000000
_symmetry_Int_Tables_number   1
_chemical_formula_structural   TiGeIr
_chemical_formula_sum   'Ti4 Ge4 Ir4'
_cell_volume   183.09113381
_cell_formula_units_Z   4
loop_
 _symmetry_equiv_pos_site_id
 _symmetry_equiv_pos_as_xyz
  1  'x, y, z'
loop_
 _atom_site_type_symbol
 _atom_site_label
 _atom_site_symmetry_multiplicity
 _atom_site_fract_x
 _atom_site_fract_y
 _atom_site_fract_z
 _atom_site_occupancy
  Ti  Ti0  1  0.75000000  0.47281834  0.18699976  1
  Ti  Ti1  1  0.75000000  0.97281834  0.31300024  1
  Ti  Ti2  1  0.25000000  0.52718166  0.81300024  1
  Ti  Ti3  1  0.25000000  0.02718166  0.68699976  1
  Ge  Ge4  1  0.75000000  0.23928250  0.87854020  1
  Ge  Ge5  1  0.75000000  0.73928250  0.62145980  1
  Ge  Ge6  1  0.25000000  0.76071750  0.12145980  1
  Ge  Ge7  1  0.25000000  0.26071750  0.37854020  1
  Ir  Ir8  1  0.75000000  0.34534421  0.56071310  1
  Ir  Ir9  1  0.75000000  0.84534421  0.93928690  1
  Ir  Ir10  1  0.25000000  0.65465579  0.43928690  1
  Ir  Ir11  1  0.25000000  0.15465579  0.06071310  1
