# generated using pymatgen
data_TbGaPd
_symmetry_space_group_name_H-M   'P 1'
_cell_length_a   4.46715469
_cell_length_b   6.97374992
_cell_length_c   7.54988560
_cell_angle_alpha   90.00000000
_cell_angle_beta   90.00000000
_cell_angle_gamma   90.00000000
_symmetry_Int_Tables_number   1
_chemical_formula_structural   TbGaPd
_chemical_formula_sum   'Tb4 Ga4 Pd4'
_cell_volume   235.20022457
_cell_formula_units_Z   4
loop_
 _symmetry_equiv_pos_site_id
 _symmetry_equiv_pos_as_xyz
  1  'x, y, z'
loop_
 _atom_site_type_symbol
 _atom_site_label
 _atom_site_symmetry_multiplicity
 _atom_site_fract_x
 _atom_site_fract_y
 _atom_site_fract_z
 _atom_site_occupancy
  Tb  Tb0  1  0.25000000  0.48151957  0.80086627  1
  Tb  Tb1  1  0.75000000  0.51848043  0.19913373  1
  Tb  Tb2  1  0.25000000  0.98151957  0.69913373  1
  Tb  Tb3  1  0.75000000  0.01848043  0.30086627  1
  Ga  Ga4  1  0.25000000  0.82320379  0.07731407  1
  Ga  Ga5  1  0.75000000  0.17679621  0.92268593  1
  Ga  Ga6  1  0.25000000  0.32320379  0.42268593  1
  Ga  Ga7  1  0.75000000  0.67679621  0.57731407  1
  Pd  Pd8  1  0.75000000  0.78455407  0.90522698  1
  Pd  Pd9  1  0.25000000  0.21544593  0.09477302  1
  Pd  Pd10  1  0.75000000  0.28455407  0.59477302  1
  Pd  Pd11  1  0.25000000  0.71544593  0.40522698  1
