# generated using pymatgen
data_K2NpO4
_symmetry_space_group_name_H-M   'P 1'
_cell_length_a   4.29170906
_cell_length_b   4.29170721
_cell_length_c   7.25235402
_cell_angle_alpha   107.20561754
_cell_angle_beta   107.21053701
_cell_angle_gamma   90.00000000
_symmetry_Int_Tables_number   1
_chemical_formula_structural   K2NpO4
_chemical_formula_sum   'K2 Np1 O4'
_cell_volume   121.32610783
_cell_formula_units_Z   1
loop_
 _symmetry_equiv_pos_site_id
 _symmetry_equiv_pos_as_xyz
  1  'x, y, z'
loop_
 _atom_site_type_symbol
 _atom_site_label
 _atom_site_symmetry_multiplicity
 _atom_site_fract_x
 _atom_site_fract_y
 _atom_site_fract_z
 _atom_site_occupancy
  K  K0  1  0.34898422  0.34905596  0.69796745  1
  K  K1  1  0.65101578  0.65094404  0.30203255  1
  Np  Np2  1  -0.00000000  0.00000000  -0.00000000  1
  O  O3  1  0.14528308  0.14519272  0.29056616  1
  O  O4  1  0.85471692  0.85480728  0.70943384  1
  O  O5  1  -0.00000000  0.50000000  -0.00000000  1
  O  O6  1  0.50000000  0.00000000  -0.00000000  1
