# generated using pymatgen
data_Sm(PRu)2
_symmetry_space_group_name_H-M   'P 1'
_cell_length_a   4.05103137
_cell_length_b   4.05103130
_cell_length_c   5.65638484
_cell_angle_alpha   110.98316252
_cell_angle_beta   110.98316169
_cell_angle_gamma   89.99999790
_symmetry_Int_Tables_number   1
_chemical_formula_structural   Sm(PRu)2
_chemical_formula_sum   'Sm1 P2 Ru2'
_cell_volume   80.04270110
_cell_formula_units_Z   1
loop_
 _symmetry_equiv_pos_site_id
 _symmetry_equiv_pos_as_xyz
  1  'x, y, z'
loop_
 _atom_site_type_symbol
 _atom_site_label
 _atom_site_symmetry_multiplicity
 _atom_site_fract_x
 _atom_site_fract_y
 _atom_site_fract_z
 _atom_site_occupancy
  Sm  Sm0  1  -0.00000000  -0.00000000  -0.00000000  1
  P  P1  1  0.62906031  0.62906031  0.25811862  1
  P  P2  1  0.37093969  0.37093969  0.74188138  1
  Ru  Ru3  1  0.75000000  0.25000000  0.50000000  1
  Ru  Ru4  1  0.25000000  0.75000000  0.50000000  1
