# generated using pymatgen
data_YbCdSn
_symmetry_space_group_name_H-M   'P 1'
_cell_length_a   7.66979770
_cell_length_b   7.66979770
_cell_length_c   4.34002484
_cell_angle_alpha   90.00000000
_cell_angle_beta   90.00000000
_cell_angle_gamma   119.99999457
_symmetry_Int_Tables_number   1
_chemical_formula_structural   YbCdSn
_chemical_formula_sum   'Yb3 Cd3 Sn3'
_cell_volume   221.10099051
_cell_formula_units_Z   3
loop_
 _symmetry_equiv_pos_site_id
 _symmetry_equiv_pos_as_xyz
  1  'x, y, z'
loop_
 _atom_site_type_symbol
 _atom_site_label
 _atom_site_symmetry_multiplicity
 _atom_site_fract_x
 _atom_site_fract_y
 _atom_site_fract_z
 _atom_site_occupancy
  Yb  Yb0  1  0.00000000  0.39881436  0.50000000  1
  Yb  Yb1  1  0.60118564  0.60118564  0.50000000  1
  Yb  Yb2  1  0.39881436  0.00000000  0.50000000  1
  Cd  Cd3  1  1.00000000  0.74257049  0.00000000  1
  Cd  Cd4  1  0.25742951  0.25742951  0.00000000  1
  Cd  Cd5  1  0.74257049  1.00000000  0.00000000  1
  Sn  Sn6  1  0.33333300  0.66666700  0.00000000  1
  Sn  Sn7  1  0.66666700  0.33333300  0.00000000  1
  Sn  Sn8  1  0.00000000  0.00000000  0.50000000  1
