# generated using pymatgen
data_Tb(GeIr)2
_symmetry_space_group_name_H-M   'P 1'
_cell_length_a   4.20890521
_cell_length_b   4.20890521
_cell_length_c   10.03534061
_cell_angle_alpha   90.00000000
_cell_angle_beta   90.00000000
_cell_angle_gamma   90.00000000
_symmetry_Int_Tables_number   1
_chemical_formula_structural   Tb(GeIr)2
_chemical_formula_sum   'Tb2 Ge4 Ir4'
_cell_volume   177.77488544
_cell_formula_units_Z   2
loop_
 _symmetry_equiv_pos_site_id
 _symmetry_equiv_pos_as_xyz
  1  'x, y, z'
loop_
 _atom_site_type_symbol
 _atom_site_label
 _atom_site_symmetry_multiplicity
 _atom_site_fract_x
 _atom_site_fract_y
 _atom_site_fract_z
 _atom_site_occupancy
  Tb  Tb0  1  0.00000000  0.50000000  0.25435601  1
  Tb  Tb1  1  0.50000000  0.00000000  0.74564399  1
  Ge  Ge2  1  0.00000000  0.00000000  0.50000000  1
  Ge  Ge3  1  0.50000000  0.50000000  0.50000000  1
  Ge  Ge4  1  0.00000000  0.50000000  0.86784946  1
  Ge  Ge5  1  0.50000000  0.00000000  0.13215054  1
  Ir  Ir6  1  -0.00000000  -0.00000000  -0.00000000  1
  Ir  Ir7  1  0.50000000  0.50000000  -0.00000000  1
  Ir  Ir8  1  0.00000000  0.50000000  0.62895215  1
  Ir  Ir9  1  0.50000000  0.00000000  0.37104785  1
