# generated using pymatgen
data_DyPS
_symmetry_space_group_name_H-M   'P 1'
_cell_length_a   5.32499797
_cell_length_b   5.35700398
_cell_length_c   16.69439367
_cell_angle_alpha   90.00000000
_cell_angle_beta   90.00000000
_cell_angle_gamma   90.00000000
_symmetry_Int_Tables_number   1
_chemical_formula_structural   DyPS
_chemical_formula_sum   'Dy8 P8 S8'
_cell_volume   476.22486346
_cell_formula_units_Z   8
loop_
 _symmetry_equiv_pos_site_id
 _symmetry_equiv_pos_as_xyz
  1  'x, y, z'
loop_
 _atom_site_type_symbol
 _atom_site_label
 _atom_site_symmetry_multiplicity
 _atom_site_fract_x
 _atom_site_fract_y
 _atom_site_fract_z
 _atom_site_occupancy
  Dy  Dy0  1  0.25000000  0.48381471  0.36188843  1
  Dy  Dy1  1  0.25000000  0.98381471  0.13811157  1
  Dy  Dy2  1  0.75000000  0.51618529  0.63811157  1
  Dy  Dy3  1  0.75000000  0.01618529  0.86188843  1
  Dy  Dy4  1  0.25000000  0.01412435  0.64675133  1
  Dy  Dy5  1  0.25000000  0.51412435  0.85324867  1
  Dy  Dy6  1  0.75000000  0.98587565  0.35324867  1
  Dy  Dy7  1  0.75000000  0.48587565  0.14675133  1
  P  P8  1  0.03921718  0.29534398  0.99718478  1
  P  P9  1  0.46078282  0.79534398  0.50281522  1
  P  P10  1  0.53921718  0.70465602  0.00281522  1
  P  P11  1  0.96078282  0.20465602  0.49718478  1
  P  P12  1  0.96078282  0.70465602  0.00281522  1
  P  P13  1  0.53921718  0.20465602  0.49718478  1
  P  P14  1  0.46078282  0.29534398  0.99718478  1
  P  P15  1  0.03921718  0.79534398  0.50281522  1
  S  S16  1  0.25000000  0.48509754  0.18894172  1
  S  S17  1  0.25000000  0.98509754  0.31105828  1
  S  S18  1  0.75000000  0.51490246  0.81105828  1
  S  S19  1  0.75000000  0.01490246  0.68894172  1
  S  S20  1  0.25000000  0.01054847  0.81598960  1
  S  S21  1  0.25000000  0.51054847  0.68401040  1
  S  S22  1  0.75000000  0.98945153  0.18401040  1
  S  S23  1  0.75000000  0.48945153  0.31598960  1
