# generated using pymatgen
data_Tl2CuTe2
_symmetry_space_group_name_H-M   'P 1'
_cell_length_a   8.65571049
_cell_length_b   8.65571049
_cell_length_c   8.65571049
_cell_angle_alpha   151.18986822
_cell_angle_beta   151.18986822
_cell_angle_gamma   41.19756056
_symmetry_Int_Tables_number   1
_chemical_formula_structural   Tl2CuTe2
_chemical_formula_sum   'Tl2 Cu1 Te2'
_cell_volume   150.27626981
_cell_formula_units_Z   1
loop_
 _symmetry_equiv_pos_site_id
 _symmetry_equiv_pos_as_xyz
  1  'x, y, z'
loop_
 _atom_site_type_symbol
 _atom_site_label
 _atom_site_symmetry_multiplicity
 _atom_site_fract_x
 _atom_site_fract_y
 _atom_site_fract_z
 _atom_site_occupancy
  Tl  Tl0  1  0.75000000  0.25000000  0.50000000  1
  Tl  Tl1  1  0.25000000  0.75000000  0.50000000  1
  Cu  Cu2  1  0.00000000  0.00000000  -0.00000000  1
  Te  Te3  1  0.41242011  0.41242011  0.00000000  1
  Te  Te4  1  0.58757989  0.58757989  -0.00000000  1
