# generated using pymatgen
data_YbAlB14
_symmetry_space_group_name_H-M   'P 1'
_cell_length_a   7.25025530
_cell_length_b   7.25025530
_cell_length_c   7.25025530
_cell_angle_alpha   132.05327639
_cell_angle_beta   111.21733058
_cell_angle_gamma   88.18182080
_symmetry_Int_Tables_number   1
_chemical_formula_structural   YbAlB14
_chemical_formula_sum   'Yb2 Al2 B28'
_cell_volume   251.28937609
_cell_formula_units_Z   2
loop_
 _symmetry_equiv_pos_site_id
 _symmetry_equiv_pos_as_xyz
  1  'x, y, z'
loop_
 _atom_site_type_symbol
 _atom_site_label
 _atom_site_symmetry_multiplicity
 _atom_site_fract_x
 _atom_site_fract_y
 _atom_site_fract_z
 _atom_site_occupancy
  Yb  Yb0  1  0.59814894  0.25000000  0.34814894  1
  Yb  Yb1  1  0.40185106  0.75000000  0.65185106  1
  Al  Al2  1  0.00000000  0.00000000  0.50000000  1
  Al  Al3  1  0.00000000  0.50000000  0.00000000  1
  B  B4  1  0.63277859  0.66738991  0.96538867  1
  B  B5  1  0.36722141  0.33261009  0.03461133  1
  B  B6  1  0.20200124  0.16738991  0.03461133  1
  B  B7  1  0.79799876  0.83261009  0.96538867  1
  B  B8  1  0.76960707  0.14465305  0.62495302  1
  B  B9  1  0.23039293  0.85534695  0.37504698  1
  B  B10  1  0.01970003  0.64465305  0.37504698  1
  B  B11  1  0.98029997  0.35534695  0.62495302  1
  B  B12  1  0.92335879  0.09051777  0.83284102  1
  B  B13  1  0.07664121  0.90948223  0.16715898  1
  B  B14  1  0.75767776  0.59051777  0.16715898  1
  B  B15  1  0.24232224  0.40948223  0.83284102  1
  B  B16  1  0.39950681  0.39884602  0.67449480  1
  B  B17  1  0.60049319  0.27498800  0.99934021  1
  B  B18  1  0.22435122  0.89884602  0.99934021  1
  B  B19  1  0.77564878  0.77498800  0.67449480  1
  B  B20  1  0.60049319  0.60115398  0.32550520  1
  B  B21  1  0.39950681  0.72501200  0.00065979  1
  B  B22  1  0.77564878  0.10115398  0.00065979  1
  B  B23  1  0.22435122  0.22501200  0.32550520  1
  B  B24  1  0.03165060  0.83276455  0.70399792  1
  B  B25  1  0.96834940  0.67234733  0.80111395  1
  B  B26  1  0.62876662  0.33276455  0.80111395  1
  B  B27  1  0.37123338  0.17234733  0.70399792  1
  B  B28  1  0.96834940  0.16723545  0.29600208  1
  B  B29  1  0.03165060  0.32765267  0.19888605  1
  B  B30  1  0.37123338  0.66723545  0.19888605  1
  B  B31  1  0.62876662  0.82765267  0.29600208  1
