# generated using pymatgen
data_K3Na(RuO4)2
_symmetry_space_group_name_H-M   'P 1'
_cell_length_a   5.91138314
_cell_length_b   5.91138314
_cell_length_c   15.14742181
_cell_angle_alpha   88.70379455
_cell_angle_beta   88.70379455
_cell_angle_gamma   60.37631872
_symmetry_Int_Tables_number   1
_chemical_formula_structural   K3Na(RuO4)2
_chemical_formula_sum   'K6 Na2 Ru4 O16'
_cell_volume   459.97390890
_cell_formula_units_Z   2
loop_
 _symmetry_equiv_pos_site_id
 _symmetry_equiv_pos_as_xyz
  1  'x, y, z'
loop_
 _atom_site_type_symbol
 _atom_site_label
 _atom_site_symmetry_multiplicity
 _atom_site_fract_x
 _atom_site_fract_y
 _atom_site_fract_z
 _atom_site_occupancy
  K  K0  1  0.29777382  0.35884436  0.91935404  1
  K  K1  1  0.64115564  0.70222618  0.58064596  1
  K  K2  1  0.93252152  0.06747848  0.75000000  1
  K  K3  1  0.06747848  0.93252152  0.25000000  1
  K  K4  1  0.35884436  0.29777382  0.41935404  1
  K  K5  1  0.70222618  0.64115564  0.08064596  1
  Na  Na6  1  -0.00000000  0.00000000  0.50000000  1
  Na  Na7  1  -0.00000000  0.00000000  0.00000000  1
  Ru  Ru8  1  0.63868162  0.69001571  0.85711044  1
  Ru  Ru9  1  0.30998429  0.36131838  0.64288956  1
  Ru  Ru10  1  0.36131838  0.30998429  0.14288956  1
  Ru  Ru11  1  0.69001571  0.63868162  0.35711044  1
  O  O12  1  0.38779789  0.77541226  0.41770790  1
  O  O13  1  0.22458774  0.61220211  0.08229210  1
  O  O14  1  0.61220211  0.22458774  0.58229210  1
  O  O15  1  0.77541226  0.38779789  0.91770790  1
  O  O16  1  0.83912599  0.29892156  0.37717526  1
  O  O17  1  0.70107844  0.16087401  0.12282474  1
  O  O18  1  0.16087401  0.70107844  0.62282474  1
  O  O19  1  0.29892156  0.83912599  0.87717526  1
  O  O20  1  0.86015421  0.77062678  0.41268002  1
  O  O21  1  0.22937322  0.13984579  0.08731998  1
  O  O22  1  0.13984579  0.22937322  0.58731998  1
  O  O23  1  0.77062678  0.86015421  0.91268002  1
  O  O24  1  0.74800643  0.61363654  0.74719457  1
  O  O25  1  0.38636346  0.25199357  0.75280543  1
  O  O26  1  0.25199357  0.38636346  0.25280543  1
  O  O27  1  0.61363654  0.74800643  0.24719457  1
