# generated using pymatgen
data_YbCrO4
_symmetry_space_group_name_H-M   'P 1'
_cell_length_a   5.82489124
_cell_length_b   5.82489124
_cell_length_c   5.82489124
_cell_angle_alpha   106.27338418
_cell_angle_beta   106.27338418
_cell_angle_gamma   116.07570659
_symmetry_Int_Tables_number   1
_chemical_formula_structural   YbCrO4
_chemical_formula_sum   'Yb2 Cr2 O8'
_cell_volume   150.60622974
_cell_formula_units_Z   2
loop_
 _symmetry_equiv_pos_site_id
 _symmetry_equiv_pos_as_xyz
  1  'x, y, z'
loop_
 _atom_site_type_symbol
 _atom_site_label
 _atom_site_symmetry_multiplicity
 _atom_site_fract_x
 _atom_site_fract_y
 _atom_site_fract_z
 _atom_site_occupancy
  Yb  Yb0  1  0.00000000  0.00000000  0.00000000  1
  Yb  Yb1  1  0.25000000  0.75000000  0.50000000  1
  Cr  Cr2  1  0.75000000  0.25000000  0.50000000  1
  Cr  Cr3  1  0.50000000  0.50000000  0.00000000  1
  O  O4  1  0.32331383  0.50938239  0.18606856  1
  O  O5  1  0.38724527  0.07331383  0.31393144  1
  O  O6  1  0.75938239  0.07331383  0.68606856  1
  O  O7  1  0.32331383  0.13724527  0.81393144  1
  O  O8  1  0.86275473  0.67668617  0.18606856  1
  O  O9  1  0.92668617  0.24061761  0.31393144  1
  O  O10  1  0.92668617  0.61275473  0.68606856  1
  O  O11  1  0.49061761  0.67668617  0.81393144  1
