# generated using pymatgen
data_Eu2GeS4
_symmetry_space_group_name_H-M   'P 1'
_cell_length_a   6.64854962
_cell_length_b   6.68100730
_cell_length_c   8.08152074
_cell_angle_alpha   72.09791391
_cell_angle_beta   90.00000000
_cell_angle_gamma   90.00000000
_symmetry_Int_Tables_number   1
_chemical_formula_structural   Eu2GeS4
_chemical_formula_sum   'Eu4 Ge2 S8'
_cell_volume   341.59281260
_cell_formula_units_Z   2
loop_
 _symmetry_equiv_pos_site_id
 _symmetry_equiv_pos_as_xyz
  1  'x, y, z'
loop_
 _atom_site_type_symbol
 _atom_site_label
 _atom_site_symmetry_multiplicity
 _atom_site_fract_x
 _atom_site_fract_y
 _atom_site_fract_z
 _atom_site_occupancy
  Eu  Eu0  1  0.25000000  0.72328512  0.94462435  1
  Eu  Eu1  1  0.75000000  0.27671488  0.05537565  1
  Eu  Eu2  1  0.25000000  0.76109306  0.43500916  1
  Eu  Eu3  1  0.75000000  0.23890694  0.56499084  1
  Ge  Ge4  1  0.25000000  0.26906707  0.80287186  1
  Ge  Ge5  1  0.75000000  0.73093293  0.19712814  1
  S  S6  1  0.25000000  0.09029232  0.08236080  1
  S  S7  1  0.75000000  0.90970768  0.91763920  1
  S  S8  1  0.25000000  0.07856426  0.62206757  1
  S  S9  1  0.75000000  0.92143574  0.37793243  1
  S  S10  1  0.50444637  0.49280758  0.74301474  1
  S  S11  1  0.00444637  0.50719242  0.25698526  1
  S  S12  1  0.49555363  0.50719242  0.25698526  1
  S  S13  1  0.99555363  0.49280758  0.74301474  1
