# generated using pymatgen
data_GdInNi4
_symmetry_space_group_name_H-M   'P 1'
_cell_length_a   4.95682625
_cell_length_b   4.95682938
_cell_length_c   4.95676965
_cell_angle_alpha   60.00090278
_cell_angle_beta   60.00085134
_cell_angle_gamma   60.00125731
_symmetry_Int_Tables_number   1
_chemical_formula_structural   GdInNi4
_chemical_formula_sum   'Gd1 In1 Ni4'
_cell_volume   86.11945816
_cell_formula_units_Z   1
loop_
 _symmetry_equiv_pos_site_id
 _symmetry_equiv_pos_as_xyz
  1  'x, y, z'
loop_
 _atom_site_type_symbol
 _atom_site_label
 _atom_site_symmetry_multiplicity
 _atom_site_fract_x
 _atom_site_fract_y
 _atom_site_fract_z
 _atom_site_occupancy
  Gd  Gd0  1  0.25000176  0.25000234  0.24997762  1
  In  In1  1  0.00000028  -0.00000286  0.00001820  1
  Ni  Ni2  1  0.62611081  0.62611284  0.62611294  1
  Ni  Ni3  1  0.62611128  0.62611212  0.12166458  1
  Ni  Ni4  1  0.62611106  0.12166277  0.62611303  1
  Ni  Ni5  1  0.12166382  0.62611179  0.62611264  1
