# generated using pymatgen
data_Y2CI2
_symmetry_space_group_name_H-M   'P 1'
_cell_length_a   3.87819297
_cell_length_b   3.87819297
_cell_length_c   11.06945342
_cell_angle_alpha   90.00000000
_cell_angle_beta   90.00000000
_cell_angle_gamma   119.99997495
_symmetry_Int_Tables_number   1
_chemical_formula_structural   Y2CI2
_chemical_formula_sum   'Y2 C1 I2'
_cell_volume   144.18356131
_cell_formula_units_Z   1
loop_
 _symmetry_equiv_pos_site_id
 _symmetry_equiv_pos_as_xyz
  1  'x, y, z'
loop_
 _atom_site_type_symbol
 _atom_site_label
 _atom_site_symmetry_multiplicity
 _atom_site_fract_x
 _atom_site_fract_y
 _atom_site_fract_z
 _atom_site_occupancy
  Y  Y0  1  0.33333300  0.66666700  0.11828330  1
  Y  Y1  1  0.66666700  0.33333300  0.88171670  1
  C  C2  1  -0.00000000  -0.00000000  0.00000000  1
  I  I3  1  0.33333300  0.66666700  0.68699021  1
  I  I4  1  0.66666700  0.33333300  0.31300979  1
