# generated using pymatgen
data_KCNO
_symmetry_space_group_name_H-M   'P 1'
_cell_length_a   5.51271154
_cell_length_b   5.51271154
_cell_length_c   5.51271154
_cell_angle_alpha   113.73600655
_cell_angle_beta   112.97784299
_cell_angle_gamma   101.95256077
_symmetry_Int_Tables_number   1
_chemical_formula_structural   KCNO
_chemical_formula_sum   'K2 C2 N2 O2'
_cell_volume   127.32433643
_cell_formula_units_Z   2
loop_
 _symmetry_equiv_pos_site_id
 _symmetry_equiv_pos_as_xyz
  1  'x, y, z'
loop_
 _atom_site_type_symbol
 _atom_site_label
 _atom_site_symmetry_multiplicity
 _atom_site_fract_x
 _atom_site_fract_y
 _atom_site_fract_z
 _atom_site_occupancy
  K  K0  1  0.25293019  0.00000000  0.25293019  1
  K  K1  1  0.75293019  0.50000000  0.25293019  1
  C  C2  1  0.49799159  0.74720492  0.74519651  1
  C  C3  1  0.99799159  0.25279508  0.75078767  1
  N  N4  1  0.35846616  0.60898168  0.46744684  1
  N  N5  1  0.85846616  0.39101832  0.74948448  1
  O  O6  1  0.64061305  0.89044138  0.03105444  1
  O  O7  1  0.14061305  0.10955862  0.75017167  1
