# generated using pymatgen
data_TaReSi
_symmetry_space_group_name_H-M   'P 1'
_cell_length_a   3.25537017
_cell_length_b   6.81158945
_cell_length_c   6.81153715
_cell_angle_alpha   120.00026322
_cell_angle_beta   90.00000000
_cell_angle_gamma   90.00000000
_symmetry_Int_Tables_number   1
_chemical_formula_structural   TaReSi
_chemical_formula_sum   'Ta3 Re3 Si3'
_cell_volume   130.80473133
_cell_formula_units_Z   3
loop_
 _symmetry_equiv_pos_site_id
 _symmetry_equiv_pos_as_xyz
  1  'x, y, z'
loop_
 _atom_site_type_symbol
 _atom_site_label
 _atom_site_symmetry_multiplicity
 _atom_site_fract_x
 _atom_site_fract_y
 _atom_site_fract_z
 _atom_site_occupancy
  Ta  Ta0  1  0.50000000  0.59959101  0.00000000  1
  Ta  Ta1  1  0.50000000  0.40040045  0.40043873  1
  Ta  Ta2  1  0.50000000  0.99996072  0.59956127  1
  Re  Re3  1  -0.00000000  0.26116571  0.00000000  1
  Re  Re4  1  -0.00000000  0.73883666  0.73885339  1
  Re  Re5  1  0.00000000  0.99998327  0.26114661  1
  Si  Si6  1  -0.00000000  0.33331501  0.66667703  1
  Si  Si7  1  -0.00000000  0.66663698  0.33332297  1
  Si  Si8  1  0.50000000  0.00001119  1.00000000  1
