# generated using pymatgen
data_YAl2Ni
_symmetry_space_group_name_H-M   'P 1'
_cell_length_a   4.01847511
_cell_length_b   5.52443393
_cell_length_c   6.85027584
_cell_angle_alpha   90.00000000
_cell_angle_beta   90.00000000
_cell_angle_gamma   111.32759934
_symmetry_Int_Tables_number   1
_chemical_formula_structural   YAl2Ni
_chemical_formula_sum   'Y2 Al4 Ni2'
_cell_volume   141.66008915
_cell_formula_units_Z   2
loop_
 _symmetry_equiv_pos_site_id
 _symmetry_equiv_pos_as_xyz
  1  'x, y, z'
loop_
 _atom_site_type_symbol
 _atom_site_label
 _atom_site_symmetry_multiplicity
 _atom_site_fract_x
 _atom_site_fract_y
 _atom_site_fract_z
 _atom_site_occupancy
  Y  Y0  1  0.94078928  0.88157956  0.25000000  1
  Y  Y1  1  0.05921072  0.11842044  0.75000000  1
  Al  Al2  1  0.33814035  0.67628370  0.94432265  1
  Al  Al3  1  0.66185965  0.32371630  0.05567735  1
  Al  Al4  1  0.66185965  0.32371630  0.44432265  1
  Al  Al5  1  0.33814035  0.67628370  0.55567735  1
  Ni  Ni6  1  0.21624147  0.43248395  0.25000000  1
  Ni  Ni7  1  0.78375853  0.56751605  0.75000000  1
