# generated using pymatgen
data_NdGe2Pd
_symmetry_space_group_name_H-M   'P 1'
_cell_length_a   8.91349750
_cell_length_b   8.91349750
_cell_length_c   4.38966748
_cell_angle_alpha   90.00000000
_cell_angle_beta   90.00000000
_cell_angle_gamma   152.03305334
_symmetry_Int_Tables_number   1
_chemical_formula_structural   NdGe2Pd
_chemical_formula_sum   'Nd2 Ge4 Pd2'
_cell_volume   163.55569946
_cell_formula_units_Z   2
loop_
 _symmetry_equiv_pos_site_id
 _symmetry_equiv_pos_as_xyz
  1  'x, y, z'
loop_
 _atom_site_type_symbol
 _atom_site_label
 _atom_site_symmetry_multiplicity
 _atom_site_fract_x
 _atom_site_fract_y
 _atom_site_fract_z
 _atom_site_occupancy
  Nd  Nd0  1  0.89294298  0.10705702  0.25000000  1
  Nd  Nd1  1  0.10705702  0.89294298  0.75000000  1
  Ge  Ge2  1  0.53562783  0.46437217  0.25000000  1
  Ge  Ge3  1  0.46437217  0.53562783  0.75000000  1
  Ge  Ge4  1  0.25168570  0.74831430  0.25000000  1
  Ge  Ge5  1  0.74831430  0.25168570  0.75000000  1
  Pd  Pd6  1  0.67661205  0.32338795  0.25000000  1
  Pd  Pd7  1  0.32338795  0.67661205  0.75000000  1
