# generated using pymatgen
data_ErGa
_symmetry_space_group_name_H-M   'P 1'
_cell_length_a   4.00428021
_cell_length_b   4.28758560
_cell_length_c   5.74897456
_cell_angle_alpha   111.89457052
_cell_angle_beta   90.00000000
_cell_angle_gamma   90.00000000
_symmetry_Int_Tables_number   1
_chemical_formula_structural   ErGa
_chemical_formula_sum   'Er2 Ga2'
_cell_volume   91.58314024
_cell_formula_units_Z   2
loop_
 _symmetry_equiv_pos_site_id
 _symmetry_equiv_pos_as_xyz
  1  'x, y, z'
loop_
 _atom_site_type_symbol
 _atom_site_label
 _atom_site_symmetry_multiplicity
 _atom_site_fract_x
 _atom_site_fract_y
 _atom_site_fract_z
 _atom_site_occupancy
  Er  Er0  1  0.25000000  0.13848737  0.27697474  1
  Er  Er1  1  0.75000000  0.86151263  0.72302526  1
  Ga  Ga2  1  0.25000000  0.42328106  0.84655911  1
  Ga  Ga3  1  0.75000000  0.57671894  0.15344089  1
