# generated using pymatgen
data_U8TiS17
_symmetry_space_group_name_H-M   'P 1'
_cell_length_a   7.90127795
_cell_length_b   7.90127795
_cell_length_c   10.45541164
_cell_angle_alpha   80.90226555
_cell_angle_beta   80.90226555
_cell_angle_gamma   65.22365576
_symmetry_Int_Tables_number   1
_chemical_formula_structural   U8TiS17
_chemical_formula_sum   'U8 Ti1 S17'
_cell_volume   582.11456864
_cell_formula_units_Z   1
loop_
 _symmetry_equiv_pos_site_id
 _symmetry_equiv_pos_as_xyz
  1  'x, y, z'
loop_
 _atom_site_type_symbol
 _atom_site_label
 _atom_site_symmetry_multiplicity
 _atom_site_fract_x
 _atom_site_fract_y
 _atom_site_fract_z
 _atom_site_occupancy
  U  U0  1  0.81561191  0.29988259  0.29802056  1
  U  U1  1  0.29988259  0.81561191  0.29802056  1
  U  U2  1  0.18438809  0.70011741  0.70197944  1
  U  U3  1  0.70011741  0.18438809  0.70197944  1
  U  U4  1  0.20638841  0.20638841  0.54136631  1
  U  U5  1  0.79361159  0.79361159  0.45863369  1
  U  U6  1  0.67981760  0.67981760  0.98167803  1
  U  U7  1  0.32018240  0.32018240  0.01832197  1
  Ti  Ti8  1  0.00000000  -0.00000000  0.00000000  1
  S  S9  1  0.82423096  0.43082973  0.53310927  1
  S  S10  1  0.43082973  0.82423096  0.53310927  1
  S  S11  1  0.17576904  0.56917027  0.46689073  1
  S  S12  1  0.56917027  0.17576904  0.46689073  1
  S  S13  1  0.94061106  0.32308029  0.02742155  1
  S  S14  1  0.32308029  0.94061106  0.02742155  1
  S  S15  1  0.05938894  0.67691971  0.97257845  1
  S  S16  1  0.67691971  0.05938894  0.97257845  1
  S  S17  1  0.20962246  0.20962246  0.27676601  1
  S  S18  1  0.79037754  0.79037754  0.72323399  1
  S  S19  1  0.05938190  0.05938190  0.77265279  1
  S  S20  1  0.94061810  0.94061810  0.22734721  1
  S  S21  1  0.30315081  0.30315081  0.75470066  1
  S  S22  1  0.69684919  0.69684919  0.24529934  1
  S  S23  1  0.52001031  0.52001031  0.83167835  1
  S  S24  1  0.47998969  0.47998969  0.16832165  1
  S  S25  1  0.00000000  -0.00000000  0.50000000  1
