# generated using pymatgen
data_PrAl2Ni
_symmetry_space_group_name_H-M   'P 1'
_cell_length_a   5.89865260
_cell_length_b   5.89865260
_cell_length_c   6.88570434
_cell_angle_alpha   90.00000000
_cell_angle_beta   90.00000000
_cell_angle_gamma   139.83702390
_symmetry_Int_Tables_number   1
_chemical_formula_structural   PrAl2Ni
_chemical_formula_sum   'Pr2 Al4 Ni2'
_cell_volume   154.52170154
_cell_formula_units_Z   2
loop_
 _symmetry_equiv_pos_site_id
 _symmetry_equiv_pos_as_xyz
  1  'x, y, z'
loop_
 _atom_site_type_symbol
 _atom_site_label
 _atom_site_symmetry_multiplicity
 _atom_site_fract_x
 _atom_site_fract_y
 _atom_site_fract_z
 _atom_site_occupancy
  Pr  Pr0  1  0.55270259  0.44729741  0.25000000  1
  Pr  Pr1  1  0.44729741  0.55270259  0.75000000  1
  Al  Al2  1  0.82621052  0.17378948  0.05806243  1
  Al  Al3  1  0.17378948  0.82621052  0.94193757  1
  Al  Al4  1  0.17378948  0.82621052  0.55806243  1
  Al  Al5  1  0.82621052  0.17378948  0.44193757  1
  Ni  Ni6  1  0.28162046  0.71837954  0.25000000  1
  Ni  Ni7  1  0.71837954  0.28162046  0.75000000  1
