# generated using pymatgen
data_Sc5Si7Pt9
_symmetry_space_group_name_H-M   'P 1'
_cell_length_a   9.97088727
_cell_length_b   9.97088656
_cell_length_c   3.89898711
_cell_angle_alpha   90.00000892
_cell_angle_beta   90.00000023
_cell_angle_gamma   120.00004195
_symmetry_Int_Tables_number   1
_chemical_formula_structural   Sc5Si7Pt9
_chemical_formula_sum   'Sc5 Si7 Pt9'
_cell_volume   335.69883089
_cell_formula_units_Z   1
loop_
 _symmetry_equiv_pos_site_id
 _symmetry_equiv_pos_as_xyz
  1  'x, y, z'
loop_
 _atom_site_type_symbol
 _atom_site_label
 _atom_site_symmetry_multiplicity
 _atom_site_fract_x
 _atom_site_fract_y
 _atom_site_fract_z
 _atom_site_occupancy
  Sc  Sc0  1  0.99999930  -0.00000008  0.00000042  1
  Sc  Sc1  1  0.33333460  0.66666768  0.49999972  1
  Sc  Sc2  1  0.89683408  0.45877150  0.49999957  1
  Sc  Sc3  1  0.56193741  0.10316561  0.49999976  1
  Sc  Sc4  1  0.54122968  0.43806411  0.50000006  1
  Si  Si5  1  0.23996029  0.18945123  0.50000025  1
  Si  Si6  1  0.81054846  0.05050856  0.50000018  1
  Si  Si7  1  0.94949074  0.76003975  0.50000020  1
  Si  Si8  1  0.55461311  0.64882410  -0.00000002  1
  Si  Si9  1  0.35117555  0.90578951  -0.00000012  1
  Si  Si10  1  0.09421080  0.44538612  -0.00000021  1
  Si  Si11  1  0.66666658  0.33333342  -0.00000031  1
  Pt  Pt12  1  0.21644557  0.93587429  0.50000007  1
  Pt  Pt13  1  0.06412518  0.28057069  0.49999999  1
  Pt  Pt14  1  0.71942718  0.78355330  0.50000011  1
  Pt  Pt15  1  0.31609927  0.41710399  -0.00000010  1
  Pt  Pt16  1  0.58289524  0.89899467  -0.00000008  1
  Pt  Pt17  1  0.10100544  0.68389998  -0.00000014  1
  Pt  Pt18  1  0.38226508  0.17204565  0.00000034  1
  Pt  Pt19  1  0.82795427  0.21021895  0.00000018  1
  Pt  Pt20  1  0.78978115  0.61773599  0.00000013  1
