# generated using pymatgen
data_GdGeIr
_symmetry_space_group_name_H-M   'P 1'
_cell_length_a   4.33696334
_cell_length_b   6.97620966
_cell_length_c   7.56028234
_cell_angle_alpha   89.99674045
_cell_angle_beta   90.00000000
_cell_angle_gamma   90.00000000
_symmetry_Int_Tables_number   1
_chemical_formula_structural   GdGeIr
_chemical_formula_sum   'Gd4 Ge4 Ir4'
_cell_volume   228.74061771
_cell_formula_units_Z   4
loop_
 _symmetry_equiv_pos_site_id
 _symmetry_equiv_pos_as_xyz
  1  'x, y, z'
loop_
 _atom_site_type_symbol
 _atom_site_label
 _atom_site_symmetry_multiplicity
 _atom_site_fract_x
 _atom_site_fract_y
 _atom_site_fract_z
 _atom_site_occupancy
  Gd  Gd0  1  0.25000000  0.99929251  0.30911081  1
  Gd  Gd1  1  0.25000000  0.49930937  0.19079562  1
  Gd  Gd2  1  0.75000000  0.00070649  0.69088819  1
  Gd  Gd3  1  0.75000000  0.50069163  0.80920438  1
  Ge  Ge4  1  0.25000000  0.29660791  0.60745738  1
  Ge  Ge5  1  0.25000000  0.79669480  0.89264922  1
  Ge  Ge6  1  0.75000000  0.70339209  0.39254262  1
  Ge  Ge7  1  0.75000000  0.20330420  0.10735078  1
  Ir  Ir8  1  0.25000000  0.15886280  0.93161966  1
  Ir  Ir9  1  0.25000000  0.65889527  0.56840379  1
  Ir  Ir10  1  0.75000000  0.84113720  0.06838034  1
  Ir  Ir11  1  0.75000000  0.34110473  0.43159621  1
