# generated using pymatgen
data_Eu3SbO7
_symmetry_space_group_name_H-M   'P 1'
_cell_length_a   6.54327492
_cell_length_b   6.54327492
_cell_length_c   7.64526015
_cell_angle_alpha   90.00000000
_cell_angle_beta   90.00000000
_cell_angle_gamma   110.44798122
_symmetry_Int_Tables_number   1
_chemical_formula_structural   Eu3SbO7
_chemical_formula_sum   'Eu6 Sb2 O14'
_cell_volume   306.70259248
_cell_formula_units_Z   2
loop_
 _symmetry_equiv_pos_site_id
 _symmetry_equiv_pos_as_xyz
  1  'x, y, z'
loop_
 _atom_site_type_symbol
 _atom_site_label
 _atom_site_symmetry_multiplicity
 _atom_site_fract_x
 _atom_site_fract_y
 _atom_site_fract_z
 _atom_site_occupancy
  Eu  Eu0  1  0.00199858  0.47086166  0.74939948  1
  Eu  Eu1  1  0.99800142  0.52913834  0.24939948  1
  Eu  Eu2  1  0.52913834  0.99800142  0.75060052  1
  Eu  Eu3  1  0.47086166  0.00199858  0.25060052  1
  Eu  Eu4  1  0.50034885  0.50034885  0.50000000  1
  Eu  Eu5  1  0.49965115  0.49965115  -0.00000000  1
  Sb  Sb6  1  0.99958093  0.99958093  0.50000000  1
  Sb  Sb7  1  0.00041907  0.00041907  -0.00000000  1
  O  O8  1  0.63604322  0.36395678  0.75000000  1
  O  O9  1  0.36395678  0.63604322  0.25000000  1
  O  O10  1  0.93863394  0.06136606  0.75000000  1
  O  O11  1  0.06136606  0.93863394  0.25000000  1
  O  O12  1  0.92760487  0.68160795  0.52735827  1
  O  O13  1  0.07239513  0.31839205  0.02735827  1
  O  O14  1  0.31839205  0.07239513  0.97264173  1
  O  O15  1  0.68160795  0.92760487  0.47264173  1
  O  O16  1  0.37183223  0.62816777  0.75000000  1
  O  O17  1  0.62816777  0.37183223  0.25000000  1
  O  O18  1  0.92921359  0.68291242  0.97135263  1
  O  O19  1  0.07078641  0.31708758  0.47135263  1
  O  O20  1  0.31708758  0.07078641  0.52864737  1
  O  O21  1  0.68291242  0.92921359  0.02864737  1
