# generated using pymatgen
data_Ti3FeS6
_symmetry_space_group_name_H-M   'P 1'
_cell_length_a   6.66803633
_cell_length_b   6.66803683
_cell_length_c   6.66803744
_cell_angle_alpha   53.15585904
_cell_angle_beta   53.15585394
_cell_angle_gamma   53.15585729
_symmetry_Int_Tables_number   1
_chemical_formula_structural   Ti3FeS6
_chemical_formula_sum   'Ti3 Fe1 S6'
_cell_volume   176.02916077
_cell_formula_units_Z   1
loop_
 _symmetry_equiv_pos_site_id
 _symmetry_equiv_pos_as_xyz
  1  'x, y, z'
loop_
 _atom_site_type_symbol
 _atom_site_label
 _atom_site_symmetry_multiplicity
 _atom_site_fract_x
 _atom_site_fract_y
 _atom_site_fract_z
 _atom_site_occupancy
  Ti  Ti0  1  0.00000000  -0.00000000  -0.00000000  1
  Ti  Ti1  1  0.33259814  0.33259814  0.33259814  1
  Ti  Ti2  1  0.66740186  0.66740186  0.66740186  1
  Fe  Fe3  1  0.50000000  0.50000000  0.50000000  1
  S  S4  1  0.91544295  0.58528104  0.24916605  1
  S  S5  1  0.58528104  0.24916605  0.91544295  1
  S  S6  1  0.24916605  0.91544295  0.58528104  1
  S  S7  1  0.75083395  0.08455705  0.41471896  1
  S  S8  1  0.41471896  0.75083395  0.08455705  1
  S  S9  1  0.08455705  0.41471896  0.75083395  1
