# generated using pymatgen
data_HoSiPt
_symmetry_space_group_name_H-M   'P 1'
_cell_length_a   4.26986068
_cell_length_b   6.95688551
_cell_length_c   7.41075126
_cell_angle_alpha   90.00008071
_cell_angle_beta   90.00000000
_cell_angle_gamma   90.00000000
_symmetry_Int_Tables_number   1
_chemical_formula_structural   HoSiPt
_chemical_formula_sum   'Ho4 Si4 Pt4'
_cell_volume   220.13586146
_cell_formula_units_Z   4
loop_
 _symmetry_equiv_pos_site_id
 _symmetry_equiv_pos_as_xyz
  1  'x, y, z'
loop_
 _atom_site_type_symbol
 _atom_site_label
 _atom_site_symmetry_multiplicity
 _atom_site_fract_x
 _atom_site_fract_y
 _atom_site_fract_z
 _atom_site_occupancy
  Ho  Ho0  1  0.25000000  0.49655600  0.70156610  1
  Ho  Ho1  1  0.25000000  0.99655415  0.79843881  1
  Ho  Ho2  1  0.75000000  0.50344886  0.29842728  1
  Ho  Ho3  1  0.75000000  0.00344295  0.20156278  1
  Si  Si4  1  0.25000000  0.81309879  0.41263972  1
  Si  Si5  1  0.25000000  0.31310185  0.08735702  1
  Si  Si6  1  0.75000000  0.18690398  0.58735239  1
  Si  Si7  1  0.75000000  0.68690005  0.91265056  1
  Pt  Pt8  1  0.25000000  0.20018995  0.41511483  1
  Pt  Pt9  1  0.25000000  0.70018934  0.08487615  1
  Pt  Pt10  1  0.75000000  0.79980618  0.58487464  1
  Pt  Pt11  1  0.75000000  0.29980892  0.91513873  1
