# generated using pymatgen
data_ReW4
_symmetry_space_group_name_H-M   'P 1'
_cell_length_a   2.75044822
_cell_length_b   2.75044822
_cell_length_c   11.30985022
_cell_angle_alpha   85.36726120
_cell_angle_beta   85.36726120
_cell_angle_gamma   109.61874033
_symmetry_Int_Tables_number   1
_chemical_formula_structural   ReW4
_chemical_formula_sum   'Re1 W4'
_cell_volume   79.79632752
_cell_formula_units_Z   1
loop_
 _symmetry_equiv_pos_site_id
 _symmetry_equiv_pos_as_xyz
  1  'x, y, z'
loop_
 _atom_site_type_symbol
 _atom_site_label
 _atom_site_symmetry_multiplicity
 _atom_site_fract_x
 _atom_site_fract_y
 _atom_site_fract_z
 _atom_site_occupancy
  Re  Re0  1  0.00000000  -0.00000000  0.00000000  1
  W  W1  1  0.40044432  0.40044432  0.19911136  1
  W  W2  1  0.80021218  0.80021218  0.39957564  1
  W  W3  1  0.19978782  0.19978782  0.60042436  1
  W  W4  1  0.59955568  0.59955568  0.80088864  1
