# generated using pymatgen
data_Eu3(AlP2)2
_symmetry_space_group_name_H-M   'P 1'
_cell_length_a   8.18963731
_cell_length_b   8.18963731
_cell_length_c   6.55382807
_cell_angle_alpha   89.85266737
_cell_angle_beta   89.85266737
_cell_angle_gamma   75.54908917
_symmetry_Int_Tables_number   1
_chemical_formula_structural   Eu3(AlP2)2
_chemical_formula_sum   'Eu6 Al4 P8'
_cell_volume   425.65695458
_cell_formula_units_Z   2
loop_
 _symmetry_equiv_pos_site_id
 _symmetry_equiv_pos_as_xyz
  1  'x, y, z'
loop_
 _atom_site_type_symbol
 _atom_site_label
 _atom_site_symmetry_multiplicity
 _atom_site_fract_x
 _atom_site_fract_y
 _atom_site_fract_z
 _atom_site_occupancy
  Eu  Eu0  1  0.00870320  0.75032945  0.53602714  1
  Eu  Eu1  1  0.24967055  0.99129680  0.96397286  1
  Eu  Eu2  1  0.99129680  0.24967055  0.46397286  1
  Eu  Eu3  1  0.75032945  0.00870320  0.03602714  1
  Eu  Eu4  1  0.40196437  0.59803563  0.25000000  1
  Eu  Eu5  1  0.59803563  0.40196437  0.75000000  1
  Al  Al6  1  0.82867363  0.58040847  0.08525378  1
  Al  Al7  1  0.41959153  0.17132637  0.41474622  1
  Al  Al8  1  0.17132637  0.41959153  0.91474622  1
  Al  Al9  1  0.58040847  0.82867363  0.58525378  1
  P  P10  1  0.05923697  0.70828534  0.02527077  1
  P  P11  1  0.29171466  0.94076303  0.47472923  1
  P  P12  1  0.94076303  0.29171466  0.97472923  1
  P  P13  1  0.70828534  0.05923697  0.52527077  1
  P  P14  1  0.74110950  0.57638364  0.42991272  1
  P  P15  1  0.42361636  0.25889050  0.07008728  1
  P  P16  1  0.25889050  0.42361636  0.57008728  1
  P  P17  1  0.57638364  0.74110950  0.92991272  1
