# generated using pymatgen
data_InAgS2
_symmetry_space_group_name_H-M   'P 1'
_cell_length_a   5.87391029
_cell_length_b   5.87391033
_cell_length_c   7.05094022
_cell_angle_alpha   114.61596303
_cell_angle_beta   114.61596149
_cell_angle_gamma   89.99998854
_symmetry_Int_Tables_number   1
_chemical_formula_structural   InAgS2
_chemical_formula_sum   'In2 Ag2 S4'
_cell_volume   196.58837866
_cell_formula_units_Z   2
loop_
 _symmetry_equiv_pos_site_id
 _symmetry_equiv_pos_as_xyz
  1  'x, y, z'
loop_
 _atom_site_type_symbol
 _atom_site_label
 _atom_site_symmetry_multiplicity
 _atom_site_fract_x
 _atom_site_fract_y
 _atom_site_fract_z
 _atom_site_occupancy
  In  In0  1  0.50000000  0.50000000  -0.00000000  1
  In  In1  1  0.75000000  0.25000000  0.50000000  1
  Ag  Ag2  1  0.25000000  0.75000000  0.50000000  1
  Ag  Ag3  1  -0.00000000  -0.00000000  -0.00000000  1
  S  S4  1  0.86374935  0.87500000  0.25000000  1
  S  S5  1  0.62500000  0.13625065  0.75000000  1
  S  S6  1  0.38625065  0.37500000  0.25000000  1
  S  S7  1  0.12500000  0.61374935  0.75000000  1
