# generated using pymatgen
data_TbMg2
_symmetry_space_group_name_H-M   'P 1'
_cell_length_a   6.05058172
_cell_length_b   6.05058172
_cell_length_c   9.79714879
_cell_angle_alpha   90.00000000
_cell_angle_beta   90.00000000
_cell_angle_gamma   120.00000071
_symmetry_Int_Tables_number   1
_chemical_formula_structural   TbMg2
_chemical_formula_sum   'Tb4 Mg8'
_cell_volume   310.61655232
_cell_formula_units_Z   4
loop_
 _symmetry_equiv_pos_site_id
 _symmetry_equiv_pos_as_xyz
  1  'x, y, z'
loop_
 _atom_site_type_symbol
 _atom_site_label
 _atom_site_symmetry_multiplicity
 _atom_site_fract_x
 _atom_site_fract_y
 _atom_site_fract_z
 _atom_site_occupancy
  Tb  Tb0  1  0.33333300  0.66666700  0.06458150  1
  Tb  Tb1  1  0.66666700  0.33333300  0.56458150  1
  Tb  Tb2  1  0.66666700  0.33333300  0.93541850  1
  Tb  Tb3  1  0.33333300  0.66666700  0.43541850  1
  Mg  Mg4  1  -0.00000000  0.00000000  -0.00000000  1
  Mg  Mg5  1  -0.00000000  0.00000000  0.50000000  1
  Mg  Mg6  1  0.82888284  0.65776668  0.25000000  1
  Mg  Mg7  1  0.17111716  0.82888284  0.75000000  1
  Mg  Mg8  1  0.65776668  0.82888284  0.75000000  1
  Mg  Mg9  1  0.34223332  0.17111716  0.25000000  1
  Mg  Mg10  1  0.82888284  0.17111716  0.25000000  1
  Mg  Mg11  1  0.17111716  0.34223332  0.75000000  1
