# generated using pymatgen
data_La2AlGe
_symmetry_space_group_name_H-M   'P 1'
_cell_length_a   6.24571432
_cell_length_b   6.24571432
_cell_length_c   4.19918315
_cell_angle_alpha   90.00000000
_cell_angle_beta   90.00000000
_cell_angle_gamma   136.62172041
_symmetry_Int_Tables_number   1
_chemical_formula_structural   La2AlGe
_chemical_formula_sum   'La2 Al1 Ge1'
_cell_volume   112.50373408
_cell_formula_units_Z   1
loop_
 _symmetry_equiv_pos_site_id
 _symmetry_equiv_pos_as_xyz
  1  'x, y, z'
loop_
 _atom_site_type_symbol
 _atom_site_label
 _atom_site_symmetry_multiplicity
 _atom_site_fract_x
 _atom_site_fract_y
 _atom_site_fract_z
 _atom_site_occupancy
  La  La0  1  0.35897185  0.64102815  0.00000000  1
  La  La1  1  0.64404932  0.35595068  0.50000000  1
  Al  Al2  1  0.06603197  0.93396803  0.00000000  1
  Ge  Ge3  1  0.93094686  0.06905314  0.50000000  1
