# generated using pymatgen
data_TmGa3
_symmetry_space_group_name_H-M   'P 1'
_cell_length_a   6.17091456
_cell_length_b   6.17091456
_cell_length_c   4.47817121
_cell_angle_alpha   90.00000000
_cell_angle_beta   90.00000000
_cell_angle_gamma   120.00001029
_symmetry_Int_Tables_number   1
_chemical_formula_structural   TmGa3
_chemical_formula_sum   'Tm2 Ga6'
_cell_volume   147.68294593
_cell_formula_units_Z   2
loop_
 _symmetry_equiv_pos_site_id
 _symmetry_equiv_pos_as_xyz
  1  'x, y, z'
loop_
 _atom_site_type_symbol
 _atom_site_label
 _atom_site_symmetry_multiplicity
 _atom_site_fract_x
 _atom_site_fract_y
 _atom_site_fract_z
 _atom_site_occupancy
  Tm  Tm0  1  0.33333300  0.66666700  0.75000000  1
  Tm  Tm1  1  0.66666700  0.33333300  0.25000000  1
  Ga  Ga2  1  0.14777294  0.29554689  0.25000000  1
  Ga  Ga3  1  0.70445311  0.85222706  0.25000000  1
  Ga  Ga4  1  0.14777294  0.85222706  0.25000000  1
  Ga  Ga5  1  0.85222706  0.70445311  0.75000000  1
  Ga  Ga6  1  0.29554689  0.14777294  0.75000000  1
  Ga  Ga7  1  0.85222706  0.14777294  0.75000000  1
