# generated using pymatgen
data_LuCrO4
_symmetry_space_group_name_H-M   'P 1'
_cell_length_a   5.80024110
_cell_length_b   5.80025688
_cell_length_c   5.80011645
_cell_angle_alpha   106.38379440
_cell_angle_beta   106.38372945
_cell_angle_gamma   115.84113847
_symmetry_Int_Tables_number   1
_chemical_formula_structural   LuCrO4
_chemical_formula_sum   'Lu2 Cr2 O8'
_cell_volume   148.80382347
_cell_formula_units_Z   2
loop_
 _symmetry_equiv_pos_site_id
 _symmetry_equiv_pos_as_xyz
  1  'x, y, z'
loop_
 _atom_site_type_symbol
 _atom_site_label
 _atom_site_symmetry_multiplicity
 _atom_site_fract_x
 _atom_site_fract_y
 _atom_site_fract_z
 _atom_site_occupancy
  Lu  Lu0  1  0.25000347  0.74999762  0.50000240  1
  Lu  Lu1  1  -0.00000372  -0.00000134  -0.00000442  1
  Cr  Cr2  1  0.74999689  0.24999838  0.49999478  1
  Cr  Cr3  1  0.50000400  0.49999661  0.00000081  1
  O  O4  1  0.32672276  0.50923580  0.19069660  1
  O  O5  1  0.38610744  0.07676149  0.31753635  1
  O  O6  1  0.75921597  0.06856624  0.68246109  1
  O  O7  1  0.31853314  0.13603085  0.80930314  1
  O  O8  1  0.86397165  0.68146012  0.19069771  1
  O  O9  1  0.93143519  0.24078211  0.31754328  1
  O  O10  1  0.92324129  0.61389536  0.68246333  1
  O  O11  1  0.49077193  0.67327675  0.80930492  1
