# generated using pymatgen
data_Dy6Zn23
_symmetry_space_group_name_H-M   'P 1'
_cell_length_a   8.86923990
_cell_length_b   8.86923990
_cell_length_c   8.86923918
_cell_angle_alpha   60.00000269
_cell_angle_beta   60.00000269
_cell_angle_gamma   59.99999462
_symmetry_Int_Tables_number   1
_chemical_formula_structural   Dy6Zn23
_chemical_formula_sum   'Dy6 Zn23'
_cell_volume   493.33755112
_cell_formula_units_Z   1
loop_
 _symmetry_equiv_pos_site_id
 _symmetry_equiv_pos_as_xyz
  1  'x, y, z'
loop_
 _atom_site_type_symbol
 _atom_site_label
 _atom_site_symmetry_multiplicity
 _atom_site_fract_x
 _atom_site_fract_y
 _atom_site_fract_z
 _atom_site_occupancy
  Dy  Dy0  1  0.70788074  0.70788074  0.29211926  1
  Dy  Dy1  1  0.29212026  0.70787974  0.29212026  1
  Dy  Dy2  1  0.70787974  0.29212026  0.29212026  1
  Dy  Dy3  1  0.29211926  0.29211926  0.70788074  1
  Dy  Dy4  1  0.70787974  0.29212026  0.70787974  1
  Dy  Dy5  1  0.29212026  0.70787974  0.70787974  1
  Zn  Zn6  1  0.00000000  -0.00000000  0.00000000  1
  Zn  Zn7  1  0.00000000  -0.00000000  0.50000000  1
  Zn  Zn8  1  0.50000000  -0.00000000  0.50000000  1
  Zn  Zn9  1  0.00000000  0.50000000  0.50000000  1
  Zn  Zn10  1  0.50000000  0.50000000  0.00000000  1
  Zn  Zn11  1  0.00000000  0.50000000  0.00000000  1
  Zn  Zn12  1  0.50000000  -0.00000000  0.00000000  1
  Zn  Zn13  1  0.87680361  0.87680361  0.36958818  1
  Zn  Zn14  1  0.87680361  0.36958818  0.87680361  1
  Zn  Zn15  1  0.36958818  0.87680361  0.87680361  1
  Zn  Zn16  1  0.87680361  0.87680361  0.87680361  1
  Zn  Zn17  1  0.12319639  0.12319639  0.63041182  1
  Zn  Zn18  1  0.12319639  0.63041182  0.12319639  1
  Zn  Zn19  1  0.63041182  0.12319639  0.12319639  1
  Zn  Zn20  1  0.12319639  0.12319639  0.12319639  1
  Zn  Zn21  1  0.67228230  0.67228230  0.98315409  1
  Zn  Zn22  1  0.67228230  0.98315409  0.67228230  1
  Zn  Zn23  1  0.98315409  0.67228230  0.67228230  1
  Zn  Zn24  1  0.67228230  0.67228230  0.67228230  1
  Zn  Zn25  1  0.32771770  0.32771770  0.01684591  1
  Zn  Zn26  1  0.32771770  0.01684591  0.32771770  1
  Zn  Zn27  1  0.01684591  0.32771770  0.32771770  1
  Zn  Zn28  1  0.32771770  0.32771770  0.32771770  1
