# generated using pymatgen
data_TmGe2
_symmetry_space_group_name_H-M   'P 1'
_cell_length_a   3.85809394
_cell_length_b   3.94593704
_cell_length_c   8.28710540
_cell_angle_alpha   103.77307519
_cell_angle_beta   90.00000000
_cell_angle_gamma   90.00000000
_symmetry_Int_Tables_number   1
_chemical_formula_structural   TmGe2
_chemical_formula_sum   'Tm2 Ge4'
_cell_volume   122.53359470
_cell_formula_units_Z   2
loop_
 _symmetry_equiv_pos_site_id
 _symmetry_equiv_pos_as_xyz
  1  'x, y, z'
loop_
 _atom_site_type_symbol
 _atom_site_label
 _atom_site_symmetry_multiplicity
 _atom_site_fract_x
 _atom_site_fract_y
 _atom_site_fract_z
 _atom_site_occupancy
  Tm  Tm0  1  0.25000000  0.89404474  0.78808748  1
  Tm  Tm1  1  0.75000000  0.10595526  0.21191252  1
  Ge  Ge2  1  0.25000000  0.55011743  0.10023486  1
  Ge  Ge3  1  0.75000000  0.44988257  0.89976514  1
  Ge  Ge4  1  0.75000000  0.74489691  0.48979482  1
  Ge  Ge5  1  0.25000000  0.25510309  0.51020518  1
