# generated using pymatgen
data_Ho2InGe2
_symmetry_space_group_name_H-M   'P 1'
_cell_length_a   4.12972731
_cell_length_b   7.36942263
_cell_length_c   7.36942263
_cell_angle_alpha   90.00000000
_cell_angle_beta   90.00000000
_cell_angle_gamma   90.00000000
_symmetry_Int_Tables_number   1
_chemical_formula_structural   Ho2InGe2
_chemical_formula_sum   'Ho4 In2 Ge4'
_cell_volume   224.27884093
_cell_formula_units_Z   2
loop_
 _symmetry_equiv_pos_site_id
 _symmetry_equiv_pos_as_xyz
  1  'x, y, z'
loop_
 _atom_site_type_symbol
 _atom_site_label
 _atom_site_symmetry_multiplicity
 _atom_site_fract_x
 _atom_site_fract_y
 _atom_site_fract_z
 _atom_site_occupancy
  Ho  Ho0  1  0.50000000  0.82057351  0.32057351  1
  Ho  Ho1  1  0.50000000  0.67942649  0.82057351  1
  Ho  Ho2  1  0.50000000  0.32057351  0.17942649  1
  Ho  Ho3  1  0.50000000  0.17942649  0.67942649  1
  In  In4  1  0.00000000  -0.00000000  0.00000000  1
  In  In5  1  0.00000000  0.50000000  0.50000000  1
  Ge  Ge6  1  -0.00000000  0.61995027  0.11995027  1
  Ge  Ge7  1  -0.00000000  0.88004973  0.61995027  1
  Ge  Ge8  1  0.00000000  0.11995027  0.38004973  1
  Ge  Ge9  1  0.00000000  0.38004973  0.88004973  1
