# generated using pymatgen
data_HoAlNi4
_symmetry_space_group_name_H-M   'P 1'
_cell_length_a   4.84187724
_cell_length_b   4.84189231
_cell_length_c   3.97900318
_cell_angle_alpha   90.00000000
_cell_angle_beta   90.00000000
_cell_angle_gamma   118.52984908
_symmetry_Int_Tables_number   1
_chemical_formula_structural   HoAlNi4
_chemical_formula_sum   'Ho1 Al1 Ni4'
_cell_volume   81.95562572
_cell_formula_units_Z   1
loop_
 _symmetry_equiv_pos_site_id
 _symmetry_equiv_pos_as_xyz
  1  'x, y, z'
loop_
 _atom_site_type_symbol
 _atom_site_label
 _atom_site_symmetry_multiplicity
 _atom_site_fract_x
 _atom_site_fract_y
 _atom_site_fract_z
 _atom_site_occupancy
  Ho  Ho0  1  -0.00000000  -0.00000000  -0.00000000  1
  Al  Al1  1  0.50000000  0.50000000  0.50000000  1
  Ni  Ni2  1  0.66849191  0.33151862  0.00000000  1
  Ni  Ni3  1  0.33150809  0.66848138  -0.00000000  1
  Ni  Ni4  1  0.50000000  -0.00000000  0.50000000  1
  Ni  Ni5  1  -0.00000000  0.50000000  0.50000000  1
