# generated using pymatgen
data_TbPO4
_symmetry_space_group_name_H-M   'P 1'
_cell_length_a   6.26874870
_cell_length_b   6.58101919
_cell_length_c   6.76294966
_cell_angle_alpha   90.00000000
_cell_angle_beta   90.00000000
_cell_angle_gamma   104.29131585
_symmetry_Int_Tables_number   1
_chemical_formula_structural   TbPO4
_chemical_formula_sum   'Tb4 P4 O16'
_cell_volume   270.36954691
_cell_formula_units_Z   4
loop_
 _symmetry_equiv_pos_site_id
 _symmetry_equiv_pos_as_xyz
  1  'x, y, z'
loop_
 _atom_site_type_symbol
 _atom_site_label
 _atom_site_symmetry_multiplicity
 _atom_site_fract_x
 _atom_site_fract_y
 _atom_site_fract_z
 _atom_site_occupancy
  Tb  Tb0  1  0.40515522  0.21757947  0.65302251  1
  Tb  Tb1  1  0.90515522  0.71757947  0.84697749  1
  Tb  Tb2  1  0.59484478  0.78242053  0.34697749  1
  Tb  Tb3  1  0.09484478  0.28242053  0.15302251  1
  P  P4  1  0.88730047  0.19844016  0.66055078  1
  P  P5  1  0.38730047  0.69844016  0.83944922  1
  P  P6  1  0.11269953  0.80155984  0.33944922  1
  P  P7  1  0.61269953  0.30155984  0.16055078  1
  O  O8  1  0.06664785  0.24848561  0.50140532  1
  O  O9  1  0.56664785  0.74848561  0.99859468  1
  O  O10  1  0.93335215  0.75151439  0.49859468  1
  O  O11  1  0.43335215  0.25151439  0.00140532  1
  O  O12  1  0.99519283  0.11552334  0.83774792  1
  O  O13  1  0.49519283  0.61552334  0.66225208  1
  O  O14  1  0.00480717  0.88447666  0.16225208  1
  O  O15  1  0.50480717  0.38447666  0.33774792  1
  O  O16  1  0.68379967  0.02818453  0.59946379  1
  O  O17  1  0.18379967  0.52818453  0.90053621  1
  O  O18  1  0.31620033  0.97181547  0.40053621  1
  O  O19  1  0.81620033  0.47181547  0.09946379  1
  O  O20  1  0.78751455  0.38177773  0.70873024  1
  O  O21  1  0.28751455  0.88177773  0.79126976  1
  O  O22  1  0.21248545  0.61822227  0.29126976  1
  O  O23  1  0.71248545  0.11822227  0.20873024  1
