# generated using pymatgen
data_LaMnCrO6
_symmetry_space_group_name_H-M   'P 1'
_cell_length_a   5.26783500
_cell_length_b   5.35139040
_cell_length_c   5.37819269
_cell_angle_alpha   118.46415451
_cell_angle_beta   89.77290190
_cell_angle_gamma   119.20635986
_symmetry_Int_Tables_number   1
_chemical_formula_structural   LaMnCrO6
_chemical_formula_sum   'La1 Mn1 Cr1 O6'
_cell_volume   111.05764520
_cell_formula_units_Z   1
loop_
 _symmetry_equiv_pos_site_id
 _symmetry_equiv_pos_as_xyz
  1  'x, y, z'
loop_
 _atom_site_type_symbol
 _atom_site_label
 _atom_site_symmetry_multiplicity
 _atom_site_fract_x
 _atom_site_fract_y
 _atom_site_fract_z
 _atom_site_occupancy
  La  La0  1  0.74015400  0.25121100  0.71606100  1
  Mn  Mn1  1  0.48245800  0.50057600  0.95978200  1
  Cr  Cr2  1  0.97975000  0.00745700  0.44432200  1
  O  O3  1  0.19903000  0.70146400  0.75818000  1
  O  O4  1  0.74196700  0.77568600  0.72936600  1
  O  O5  1  0.28307200  0.22351000  0.28373600  1
  O  O6  1  0.74095900  0.77298800  0.23234800  1
  O  O7  1  0.27562100  0.22092200  0.77829800  1
  O  O8  1  0.79716600  0.28594900  0.25649500  1
