# generated using pymatgen
data_Cu2PbSe2(ClO3)2
_symmetry_space_group_name_H-M   'P 1'
_cell_length_a   8.11778605
_cell_length_b   8.11778605
_cell_length_c   6.91300093
_cell_angle_alpha   89.17039714
_cell_angle_beta   89.17039714
_cell_angle_gamma   72.31589837
_symmetry_Int_Tables_number   1
_chemical_formula_structural   Cu2PbSe2(ClO3)2
_chemical_formula_sum   'Cu4 Pb2 Se4 Cl4 O12'
_cell_volume   433.95932097
_cell_formula_units_Z   2
loop_
 _symmetry_equiv_pos_site_id
 _symmetry_equiv_pos_as_xyz
  1  'x, y, z'
loop_
 _atom_site_type_symbol
 _atom_site_label
 _atom_site_symmetry_multiplicity
 _atom_site_fract_x
 _atom_site_fract_y
 _atom_site_fract_z
 _atom_site_occupancy
  Cu  Cu0  1  0.88955067  0.11044933  0.75000000  1
  Cu  Cu1  1  0.11044933  0.88955067  0.25000000  1
  Cu  Cu2  1  -0.00000000  0.50000000  0.00000000  1
  Cu  Cu3  1  0.50000000  0.00000000  0.50000000  1
  Pb  Pb4  1  0.65758408  0.34241592  0.25000000  1
  Pb  Pb5  1  0.34241592  0.65758408  0.75000000  1
  Se  Se6  1  0.73218621  0.93221716  0.08784606  1
  Se  Se7  1  0.06778284  0.26781379  0.41215394  1
  Se  Se8  1  0.26781379  0.06778284  0.91215394  1
  Se  Se9  1  0.93221716  0.73218621  0.58784606  1
  Cl  Cl10  1  0.27178653  0.47402371  0.11760586  1
  Cl  Cl11  1  0.52597629  0.72821347  0.38239414  1
  Cl  Cl12  1  0.72821347  0.52597629  0.88239414  1
  Cl  Cl13  1  0.47402371  0.27178653  0.61760586  1
  O  O14  1  0.80096508  0.10441019  0.00784859  1
  O  O15  1  0.89558981  0.19903492  0.49215141  1
  O  O16  1  0.19903492  0.89558981  0.99215141  1
  O  O17  1  0.10441019  0.80096508  0.50784859  1
  O  O18  1  0.94882223  0.37216919  0.21533131  1
  O  O19  1  0.62783081  0.05117777  0.28466869  1
  O  O20  1  0.05117777  0.62783081  0.78466869  1
  O  O21  1  0.37216919  0.94882223  0.71533131  1
  O  O22  1  0.91889845  0.79747493  0.17852727  1
  O  O23  1  0.20252507  0.08110155  0.32147273  1
  O  O24  1  0.08110155  0.20252507  0.82147273  1
  O  O25  1  0.79747493  0.91889845  0.67852727  1
