# generated using pymatgen
data_AlPO4
_symmetry_space_group_name_H-M   'P 1'
_cell_length_a   4.85190701
_cell_length_b   8.73709687
_cell_length_c   10.85471774
_cell_angle_alpha   89.77248519
_cell_angle_beta   90.00000000
_cell_angle_gamma   90.00000000
_symmetry_Int_Tables_number   1
_chemical_formula_structural   AlPO4
_chemical_formula_sum   'Al6 P6 O24'
_cell_volume   460.14502460
_cell_formula_units_Z   6
loop_
 _symmetry_equiv_pos_site_id
 _symmetry_equiv_pos_as_xyz
  1  'x, y, z'
loop_
 _atom_site_type_symbol
 _atom_site_label
 _atom_site_symmetry_multiplicity
 _atom_site_fract_x
 _atom_site_fract_y
 _atom_site_fract_z
 _atom_site_occupancy
  Al  Al0  1  0.46406783  0.75000000  0.50000000  1
  Al  Al1  1  0.53593217  0.25000000  0.50000000  1
  Al  Al2  1  0.74128069  0.51511661  0.83435915  1
  Al  Al3  1  0.74128069  0.98488339  0.16564085  1
  Al  Al4  1  0.25871931  0.48488339  0.16564085  1
  Al  Al5  1  0.25871931  0.01511661  0.83435915  1
  P  P6  1  0.03585828  0.75000000  0.00000000  1
  P  P7  1  0.96414172  0.25000000  0.00000000  1
  P  P8  1  0.76391270  0.51485436  0.33325220  1
  P  P9  1  0.76391270  0.98514564  0.66674780  1
  P  P10  1  0.23608730  0.48514564  0.66674780  1
  P  P11  1  0.23608730  0.01485436  0.33325220  1
  O  O12  1  0.06507666  0.52950276  0.29604841  1
  O  O13  1  0.06507666  0.97049724  0.70395159  1
  O  O14  1  0.93492334  0.47049724  0.70395159  1
  O  O15  1  0.93492334  0.02950276  0.29604841  1
  O  O16  1  0.59657573  0.47464559  0.21809947  1
  O  O17  1  0.59657573  0.02535441  0.78190053  1
  O  O18  1  0.40342427  0.52535441  0.78190053  1
  O  O19  1  0.40342427  0.97464559  0.21809947  1
  O  O20  1  0.85249452  0.68635143  0.89814729  1
  O  O21  1  0.85249452  0.81364857  0.10185271  1
  O  O22  1  0.14750548  0.31364857  0.10185271  1
  O  O23  1  0.14750548  0.18635143  0.89814729  1
  O  O24  1  0.66784573  0.66669830  0.38648461  1
  O  O25  1  0.66784573  0.83330170  0.61351539  1
  O  O26  1  0.33215427  0.33330170  0.61351539  1
  O  O27  1  0.33215427  0.16669830  0.38648461  1
  O  O28  1  0.77944066  0.37451583  0.94663686  1
  O  O29  1  0.77944066  0.12548417  0.05336314  1
  O  O30  1  0.22055934  0.62548417  0.05336314  1
  O  O31  1  0.22055934  0.87451583  0.94663686  1
  O  O32  1  0.73711479  0.38880429  0.42956056  1
  O  O33  1  0.73711479  0.11119571  0.57043944  1
  O  O34  1  0.26288521  0.61119571  0.57043944  1
  O  O35  1  0.26288521  0.88880429  0.42956056  1
