# generated using pymatgen
data_RbCu4S3
_symmetry_space_group_name_H-M   'P 1'
_cell_length_a   3.87508514
_cell_length_b   3.87508514
_cell_length_c   9.49674759
_cell_angle_alpha   90.00000000
_cell_angle_beta   90.00000000
_cell_angle_gamma   90.00000000
_symmetry_Int_Tables_number   1
_chemical_formula_structural   RbCu4S3
_chemical_formula_sum   'Rb1 Cu4 S3'
_cell_volume   142.60586689
_cell_formula_units_Z   1
loop_
 _symmetry_equiv_pos_site_id
 _symmetry_equiv_pos_as_xyz
  1  'x, y, z'
loop_
 _atom_site_type_symbol
 _atom_site_label
 _atom_site_symmetry_multiplicity
 _atom_site_fract_x
 _atom_site_fract_y
 _atom_site_fract_z
 _atom_site_occupancy
  Rb  Rb0  1  -0.00000000  0.00000000  0.50000000  1
  Cu  Cu1  1  0.00000000  0.50000000  0.15738988  1
  Cu  Cu2  1  -0.00000000  0.50000000  0.84261012  1
  Cu  Cu3  1  0.50000000  0.00000000  0.15738988  1
  Cu  Cu4  1  0.50000000  -0.00000000  0.84261012  1
  S  S5  1  0.50000000  0.50000000  0.28569993  1
  S  S6  1  0.50000000  0.50000000  0.71430007  1
  S  S7  1  -0.00000000  0.00000000  -0.00000000  1
