# generated using pymatgen
data_NpSe3
_symmetry_space_group_name_H-M   'P 1'
_cell_length_a   4.11822633
_cell_length_b   5.67933996
_cell_length_c   9.67942675
_cell_angle_alpha   82.57800714
_cell_angle_beta   90.00000000
_cell_angle_gamma   90.00000000
_symmetry_Int_Tables_number   1
_chemical_formula_structural   NpSe3
_chemical_formula_sum   'Np2 Se6'
_cell_volume   224.49347115
_cell_formula_units_Z   2
loop_
 _symmetry_equiv_pos_site_id
 _symmetry_equiv_pos_as_xyz
  1  'x, y, z'
loop_
 _atom_site_type_symbol
 _atom_site_label
 _atom_site_symmetry_multiplicity
 _atom_site_fract_x
 _atom_site_fract_y
 _atom_site_fract_z
 _atom_site_occupancy
  Np  Np0  1  0.25000000  0.71788042  0.15065416  1
  Np  Np1  1  0.75000000  0.28211958  0.84934584  1
  Se  Se2  1  0.25000000  0.53182823  0.67663166  1
  Se  Se3  1  0.75000000  0.46817177  0.32336834  1
  Se  Se4  1  0.25000000  0.23607896  0.06081745  1
  Se  Se5  1  0.75000000  0.76392104  0.93918255  1
  Se  Se6  1  0.25000000  0.12225863  0.66869262  1
  Se  Se7  1  0.75000000  0.87774137  0.33130738  1
