# generated using pymatgen
data_U8NiSe17
_symmetry_space_group_name_H-M   'P 1'
_cell_length_a   8.28766450
_cell_length_b   8.28766450
_cell_length_c   10.94433413
_cell_angle_alpha   80.10436700
_cell_angle_beta   80.10436700
_cell_angle_gamma   64.18548742
_symmetry_Int_Tables_number   1
_chemical_formula_structural   U8NiSe17
_chemical_formula_sum   'U8 Ni1 Se17'
_cell_volume   662.63192615
_cell_formula_units_Z   1
loop_
 _symmetry_equiv_pos_site_id
 _symmetry_equiv_pos_as_xyz
  1  'x, y, z'
loop_
 _atom_site_type_symbol
 _atom_site_label
 _atom_site_symmetry_multiplicity
 _atom_site_fract_x
 _atom_site_fract_y
 _atom_site_fract_z
 _atom_site_occupancy
  U  U0  1  0.81598379  0.30219774  0.29598322  1
  U  U1  1  0.30219774  0.81598379  0.29598322  1
  U  U2  1  0.18401621  0.69780226  0.70401678  1
  U  U3  1  0.69780226  0.18401621  0.70401678  1
  U  U4  1  0.20247126  0.20247126  0.54433172  1
  U  U5  1  0.79752874  0.79752874  0.45566828  1
  U  U6  1  0.68097553  0.68097553  0.98404057  1
  U  U7  1  0.31902447  0.31902447  0.01595943  1
  Ni  Ni8  1  -0.00000000  0.00000000  0.00000000  1
  Se  Se9  1  0.82288983  0.43319943  0.53511784  1
  Se  Se10  1  0.43319943  0.82288983  0.53511784  1
  Se  Se11  1  0.17711017  0.56680057  0.46488216  1
  Se  Se12  1  0.56680057  0.17711017  0.46488216  1
  Se  Se13  1  0.94319454  0.32347713  0.02751283  1
  Se  Se14  1  0.32347713  0.94319454  0.02751283  1
  Se  Se15  1  0.05680546  0.67652287  0.97248717  1
  Se  Se16  1  0.67652287  0.05680546  0.97248717  1
  Se  Se17  1  0.20980468  0.20980468  0.27836167  1
  Se  Se18  1  0.79019532  0.79019532  0.72163833  1
  Se  Se19  1  0.05415683  0.05415683  0.77618430  1
  Se  Se20  1  0.94584317  0.94584317  0.22381570  1
  Se  Se21  1  0.30207954  0.30207954  0.75326019  1
  Se  Se22  1  0.69792046  0.69792046  0.24673981  1
  Se  Se23  1  0.52083458  0.52083458  0.82888555  1
  Se  Se24  1  0.47916542  0.47916542  0.17111445  1
  Se  Se25  1  -0.00000000  0.00000000  0.50000000  1
