# generated using pymatgen
data_Th(P3Ru)4
_symmetry_space_group_name_H-M   'P 1'
_cell_length_a   6.98686616
_cell_length_b   6.98686616
_cell_length_c   6.98686616
_cell_angle_alpha   109.47122063
_cell_angle_beta   109.47122063
_cell_angle_gamma   109.47122063
_symmetry_Int_Tables_number   1
_chemical_formula_structural   Th(P3Ru)4
_chemical_formula_sum   'Th1 P12 Ru4'
_cell_volume   262.55807636
_cell_formula_units_Z   1
loop_
 _symmetry_equiv_pos_site_id
 _symmetry_equiv_pos_as_xyz
  1  'x, y, z'
loop_
 _atom_site_type_symbol
 _atom_site_label
 _atom_site_symmetry_multiplicity
 _atom_site_fract_x
 _atom_site_fract_y
 _atom_site_fract_z
 _atom_site_occupancy
  Th  Th0  1  0.00000000  -0.00000000  -0.00000000  1
  P  P1  1  0.85624143  0.64400974  0.50025217  1
  P  P2  1  0.14375857  0.35599026  0.49974783  1
  P  P3  1  0.14375857  0.64400974  0.78776831  1
  P  P4  1  0.85624143  0.35599026  0.21223169  1
  P  P5  1  0.64400974  0.50025217  0.85624143  1
  P  P6  1  0.35599026  0.49974783  0.14375857  1
  P  P7  1  0.64400974  0.78776831  0.14375857  1
  P  P8  1  0.35599026  0.21223169  0.85624143  1
  P  P9  1  0.50025217  0.85624143  0.64400974  1
  P  P10  1  0.49974783  0.14375857  0.35599026  1
  P  P11  1  0.21223169  0.85624143  0.35599026  1
  P  P12  1  0.78776831  0.14375857  0.64400974  1
  Ru  Ru13  1  0.50000000  0.50000000  0.50000000  1
  Ru  Ru14  1  0.50000000  -0.00000000  -0.00000000  1
  Ru  Ru15  1  0.00000000  0.50000000  -0.00000000  1
  Ru  Ru16  1  0.00000000  -0.00000000  0.50000000  1
