# generated using pymatgen
data_NdGePd2
_symmetry_space_group_name_H-M   'P 1'
_cell_length_a   5.73758105
_cell_length_b   7.61818496
_cell_length_c   7.03674758
_cell_angle_alpha   90.00000000
_cell_angle_beta   90.00000000
_cell_angle_gamma   90.00000000
_symmetry_Int_Tables_number   1
_chemical_formula_structural   NdGePd2
_chemical_formula_sum   'Nd4 Ge4 Pd8'
_cell_volume   307.57591065
_cell_formula_units_Z   4
loop_
 _symmetry_equiv_pos_site_id
 _symmetry_equiv_pos_as_xyz
  1  'x, y, z'
loop_
 _atom_site_type_symbol
 _atom_site_label
 _atom_site_symmetry_multiplicity
 _atom_site_fract_x
 _atom_site_fract_y
 _atom_site_fract_z
 _atom_site_occupancy
  Nd  Nd0  1  0.85037542  0.53232358  0.25000000  1
  Nd  Nd1  1  0.64962458  0.03232358  0.25000000  1
  Nd  Nd2  1  0.14962458  0.46767642  0.75000000  1
  Nd  Nd3  1  0.35037542  0.96767642  0.75000000  1
  Ge  Ge4  1  0.15038075  0.87703619  0.25000000  1
  Ge  Ge5  1  0.34961925  0.37703619  0.25000000  1
  Ge  Ge6  1  0.84961925  0.12296381  0.75000000  1
  Ge  Ge7  1  0.65038075  0.62296381  0.75000000  1
  Pd  Pd8  1  0.41162391  0.67763674  0.05231584  1
  Pd  Pd9  1  0.08837609  0.17763674  0.44768416  1
  Pd  Pd10  1  0.58837609  0.32236326  0.55231584  1
  Pd  Pd11  1  0.91162391  0.82236326  0.94768416  1
  Pd  Pd12  1  0.58837609  0.32236326  0.94768416  1
  Pd  Pd13  1  0.91162391  0.82236326  0.55231584  1
  Pd  Pd14  1  0.41162391  0.67763674  0.44768416  1
  Pd  Pd15  1  0.08837609  0.17763674  0.05231584  1
