# generated using pymatgen
data_PrAlAu
_symmetry_space_group_name_H-M   'P 1'
_cell_length_a   4.59223085
_cell_length_b   7.56534912
_cell_length_c   7.79004899
_cell_angle_alpha   90.00000000
_cell_angle_beta   90.00000000
_cell_angle_gamma   90.00000000
_symmetry_Int_Tables_number   1
_chemical_formula_structural   PrAlAu
_chemical_formula_sum   'Pr4 Al4 Au4'
_cell_volume   270.64055474
_cell_formula_units_Z   4
loop_
 _symmetry_equiv_pos_site_id
 _symmetry_equiv_pos_as_xyz
  1  'x, y, z'
loop_
 _atom_site_type_symbol
 _atom_site_label
 _atom_site_symmetry_multiplicity
 _atom_site_fract_x
 _atom_site_fract_y
 _atom_site_fract_z
 _atom_site_occupancy
  Pr  Pr0  1  0.75000000  0.48971205  0.19404316  1
  Pr  Pr1  1  0.75000000  0.98971205  0.30595684  1
  Pr  Pr2  1  0.25000000  0.51028795  0.80595684  1
  Pr  Pr3  1  0.25000000  0.01028795  0.69404316  1
  Al  Al4  1  0.75000000  0.32737335  0.58060736  1
  Al  Al5  1  0.75000000  0.82737335  0.91939264  1
  Al  Al6  1  0.25000000  0.67262665  0.41939264  1
  Al  Al7  1  0.25000000  0.17262665  0.08060736  1
  Au  Au8  1  0.75000000  0.19953149  0.90814709  1
  Au  Au9  1  0.75000000  0.69953149  0.59185291  1
  Au  Au10  1  0.25000000  0.80046851  0.09185291  1
  Au  Au11  1  0.25000000  0.30046851  0.40814709  1
