# generated using pymatgen
data_Ti2Be17
_symmetry_space_group_name_H-M   'P 1'
_cell_length_a   7.16998013
_cell_length_b   7.34361351
_cell_length_c   7.34361351
_cell_angle_alpha   119.99701208
_cell_angle_beta   90.00000000
_cell_angle_gamma   90.00000000
_symmetry_Int_Tables_number   1
_chemical_formula_structural   Ti2Be17
_chemical_formula_sum   'Ti4 Be34'
_cell_volume   334.87388672
_cell_formula_units_Z   2
loop_
 _symmetry_equiv_pos_site_id
 _symmetry_equiv_pos_as_xyz
  1  'x, y, z'
loop_
 _atom_site_type_symbol
 _atom_site_label
 _atom_site_symmetry_multiplicity
 _atom_site_fract_x
 _atom_site_fract_y
 _atom_site_fract_z
 _atom_site_occupancy
  Ti  Ti0  1  0.75000000  0.99994652  0.00005348  1
  Ti  Ti1  1  0.25000000  0.00005348  0.99994652  1
  Ti  Ti2  1  0.25000000  0.66661989  0.33338011  1
  Ti  Ti3  1  0.75000000  0.33338011  0.66661989  1
  Be  Be4  1  0.60213961  0.66667939  0.33332061  1
  Be  Be5  1  0.39786039  0.33332061  0.66667939  1
  Be  Be6  1  0.10213961  0.33332061  0.66667939  1
  Be  Be7  1  0.89786039  0.66667939  0.33332061  1
  Be  Be8  1  0.50000000  0.50000000  0.00000000  1
  Be  Be9  1  0.50000000  0.50000000  0.50000000  1
  Be  Be10  1  0.50000000  -0.00000000  0.50000000  1
  Be  Be11  1  0.00000000  0.50000000  0.00000000  1
  Be  Be12  1  0.00000000  0.50000000  0.50000000  1
  Be  Be13  1  -0.00000000  -0.00000000  0.50000000  1
  Be  Be14  1  0.75000000  0.66959520  0.03922867  1
  Be  Be15  1  0.75000000  0.36949374  0.33020800  1
  Be  Be16  1  0.75000000  0.96084522  0.63079449  1
  Be  Be17  1  0.75000000  0.36920551  0.03915478  1
  Be  Be18  1  0.75000000  0.96077133  0.33040480  1
  Be  Be19  1  0.75000000  0.66979200  0.63050626  1
  Be  Be20  1  0.25000000  0.33040480  0.96077133  1
  Be  Be21  1  0.25000000  0.63050626  0.66979200  1
  Be  Be22  1  0.25000000  0.03915478  0.36920551  1
  Be  Be23  1  0.25000000  0.63079449  0.96084522  1
  Be  Be24  1  0.25000000  0.03922867  0.66959520  1
  Be  Be25  1  0.25000000  0.33020800  0.36949374  1
  Be  Be26  1  0.48492473  0.83578264  0.67157081  1
  Be  Be27  1  0.48501120  0.83578839  0.16421161  1
  Be  Be28  1  0.48492473  0.32842919  0.16421736  1
  Be  Be29  1  0.51507527  0.16421736  0.32842919  1
  Be  Be30  1  0.51498880  0.16421161  0.83578839  1
  Be  Be31  1  0.51507527  0.67157081  0.83578264  1
  Be  Be32  1  0.98492473  0.16421736  0.32842919  1
  Be  Be33  1  0.98501120  0.16421161  0.83578839  1
  Be  Be34  1  0.98492473  0.67157081  0.83578264  1
  Be  Be35  1  0.01507527  0.83578264  0.67157081  1
  Be  Be36  1  0.01498880  0.83578839  0.16421161  1
  Be  Be37  1  0.01507527  0.32842919  0.16421736  1
