# generated using pymatgen
data_ErAlPt
_symmetry_space_group_name_H-M   'P 1'
_cell_length_a   4.37059208
_cell_length_b   6.83121641
_cell_length_c   7.68336352
_cell_angle_alpha   90.01871933
_cell_angle_beta   90.00000000
_cell_angle_gamma   90.00000000
_symmetry_Int_Tables_number   1
_chemical_formula_structural   ErAlPt
_chemical_formula_sum   'Er4 Al4 Pt4'
_cell_volume   229.39802607
_cell_formula_units_Z   4
loop_
 _symmetry_equiv_pos_site_id
 _symmetry_equiv_pos_as_xyz
  1  'x, y, z'
loop_
 _atom_site_type_symbol
 _atom_site_label
 _atom_site_symmetry_multiplicity
 _atom_site_fract_x
 _atom_site_fract_y
 _atom_site_fract_z
 _atom_site_occupancy
  Er  Er0  1  0.25000000  0.47198108  0.18118006  1
  Er  Er1  1  0.75000000  0.52801892  0.81881994  1
  Er  Er2  1  0.75000000  0.02798545  0.68116823  1
  Er  Er3  1  0.25000000  0.97201455  0.31883177  1
  Al  Al4  1  0.25000000  0.85594584  0.93612960  1
  Al  Al5  1  0.75000000  0.14405416  0.06387040  1
  Al  Al6  1  0.75000000  0.64409166  0.43604826  1
  Al  Al7  1  0.25000000  0.35590834  0.56395174  1
  Pt  Pt8  1  0.25000000  0.72881271  0.61693460  1
  Pt  Pt9  1  0.75000000  0.27118729  0.38306540  1
  Pt  Pt10  1  0.75000000  0.77123112  0.11704776  1
  Pt  Pt11  1  0.25000000  0.22876888  0.88295224  1
