# generated using pymatgen
data_Nb3SnH
_symmetry_space_group_name_H-M   'P 1'
_cell_length_a   5.39195961
_cell_length_b   5.39195961
_cell_length_c   5.37328962
_cell_angle_alpha   90.00000000
_cell_angle_beta   90.00000000
_cell_angle_gamma   90.23250266
_symmetry_Int_Tables_number   1
_chemical_formula_structural   Nb3SnH
_chemical_formula_sum   'Nb6 Sn2 H2'
_cell_volume   156.21759026
_cell_formula_units_Z   2
loop_
 _symmetry_equiv_pos_site_id
 _symmetry_equiv_pos_as_xyz
  1  'x, y, z'
loop_
 _atom_site_type_symbol
 _atom_site_label
 _atom_site_symmetry_multiplicity
 _atom_site_fract_x
 _atom_site_fract_y
 _atom_site_fract_z
 _atom_site_occupancy
  Nb  Nb0  1  0.25286358  0.50745122  0.25000000  1
  Nb  Nb1  1  0.99130276  0.99130276  -0.00000000  1
  Nb  Nb2  1  0.50745122  0.25286358  0.75000000  1
  Nb  Nb3  1  0.74590455  0.51076605  0.25000000  1
  Nb  Nb4  1  0.99130276  0.99130276  0.50000000  1
  Nb  Nb5  1  0.51076605  0.74590455  0.75000000  1
  Sn  Sn6  1  0.49780969  0.00247712  0.25000000  1
  Sn  Sn7  1  0.00247712  0.49780969  0.75000000  1
  H  H8  1  0.99830902  0.25181625  0.25000000  1
  H  H9  1  0.25181625  0.99830902  0.75000000  1
