# generated using pymatgen
data_Nb2CrB2
_symmetry_space_group_name_H-M   'P 1'
_cell_length_a   3.25624622
_cell_length_b   5.95410771
_cell_length_c   5.95410771
_cell_angle_alpha   90.00000000
_cell_angle_beta   90.00000000
_cell_angle_gamma   90.00000000
_symmetry_Int_Tables_number   1
_chemical_formula_structural   Nb2CrB2
_chemical_formula_sum   'Nb4 Cr2 B4'
_cell_volume   115.43848276
_cell_formula_units_Z   2
loop_
 _symmetry_equiv_pos_site_id
 _symmetry_equiv_pos_as_xyz
  1  'x, y, z'
loop_
 _atom_site_type_symbol
 _atom_site_label
 _atom_site_symmetry_multiplicity
 _atom_site_fract_x
 _atom_site_fract_y
 _atom_site_fract_z
 _atom_site_occupancy
  Nb  Nb0  1  0.50000000  0.18089206  0.68089206  1
  Nb  Nb1  1  0.50000000  0.81910794  0.31910794  1
  Nb  Nb2  1  0.50000000  0.31910794  0.18089206  1
  Nb  Nb3  1  0.50000000  0.68089206  0.81910794  1
  Cr  Cr4  1  -0.00000000  0.50000000  0.50000000  1
  Cr  Cr5  1  -0.00000000  0.00000000  -0.00000000  1
  B  B6  1  -0.00000000  0.60996016  0.10996016  1
  B  B7  1  0.00000000  0.39003984  0.89003984  1
  B  B8  1  0.00000000  0.89003984  0.60996016  1
  B  B9  1  -0.00000000  0.10996016  0.39003984  1
