# generated using pymatgen
data_ErGa2Pd
_symmetry_space_group_name_H-M   'P 1'
_cell_length_a   5.47357773
_cell_length_b   5.47357773
_cell_length_c   6.53136764
_cell_angle_alpha   90.00000000
_cell_angle_beta   90.00000000
_cell_angle_gamma   132.83497060
_symmetry_Int_Tables_number   1
_chemical_formula_structural   ErGa2Pd
_chemical_formula_sum   'Er2 Ga4 Pd2'
_cell_volume   143.49517422
_cell_formula_units_Z   2
loop_
 _symmetry_equiv_pos_site_id
 _symmetry_equiv_pos_as_xyz
  1  'x, y, z'
loop_
 _atom_site_type_symbol
 _atom_site_label
 _atom_site_symmetry_multiplicity
 _atom_site_fract_x
 _atom_site_fract_y
 _atom_site_fract_z
 _atom_site_occupancy
  Er  Er0  1  0.58788834  0.41211166  0.25000000  1
  Er  Er1  1  0.41211166  0.58788834  0.75000000  1
  Ga  Ga2  1  0.87271580  0.12728420  0.44615443  1
  Ga  Ga3  1  0.12728420  0.87271580  0.55384557  1
  Ga  Ga4  1  0.87271580  0.12728420  0.05384557  1
  Ga  Ga5  1  0.12728420  0.87271580  0.94615443  1
  Pd  Pd6  1  0.29917450  0.70082550  0.25000000  1
  Pd  Pd7  1  0.70082550  0.29917450  0.75000000  1
