# generated using pymatgen
data_Rb3(SO4)2
_symmetry_space_group_name_H-M   'P 1'
_cell_length_a   8.02037645
_cell_length_b   8.02042794
_cell_length_c   10.07405516
_cell_angle_alpha   77.94885235
_cell_angle_beta   77.94905850
_cell_angle_gamma   43.29128113
_symmetry_Int_Tables_number   1
_chemical_formula_structural   Rb3(SO4)2
_chemical_formula_sum   'Rb6 S4 O16'
_cell_volume   433.00535425
_cell_formula_units_Z   2
loop_
 _symmetry_equiv_pos_site_id
 _symmetry_equiv_pos_as_xyz
  1  'x, y, z'
loop_
 _atom_site_type_symbol
 _atom_site_label
 _atom_site_symmetry_multiplicity
 _atom_site_fract_x
 _atom_site_fract_y
 _atom_site_fract_z
 _atom_site_occupancy
  Rb  Rb0  1  0.23498839  0.76499691  0.75001546  1
  Rb  Rb1  1  0.76501173  0.23496940  0.24999222  1
  Rb  Rb2  1  0.53887511  0.08288877  0.65096837  1
  Rb  Rb3  1  0.91713292  0.46110183  0.84903932  1
  Rb  Rb4  1  0.46111859  0.91712436  0.34905578  1
  Rb  Rb5  1  0.08288202  0.53888436  0.15094150  1
  S  S6  1  0.10303772  0.66862751  0.46563405  1
  S  S7  1  0.33139136  0.89695146  0.03436896  1
  S  S8  1  0.89695664  0.33135032  0.53439623  1
  S  S9  1  0.66863145  0.10305535  0.96560172  1
  O  O10  1  0.87332462  0.81943872  0.40521234  1
  O  O11  1  0.18055762  0.12668988  0.09479264  1
  O  O12  1  0.12665376  0.18055783  0.59481476  1
  O  O13  1  0.81942178  0.87337024  0.90518364  1
  O  O14  1  0.17748329  0.79987484  0.43976528  1
  O  O15  1  0.20013083  0.82250226  0.06023960  1
  O  O16  1  0.82250859  0.20011791  0.56027049  1
  O  O17  1  0.79985874  0.17751491  0.93971963  1
  O  O18  1  0.07815432  0.61753287  0.61282153  1
  O  O19  1  0.38248083  0.92184723  0.88716813  1
  O  O20  1  0.92183065  0.38244216  0.38721765  1
  O  O21  1  0.61754728  0.07818484  0.11277591  1
  O  O22  1  0.30388574  0.44039701  0.39808983  1
  O  O23  1  0.55962700  0.69610439  0.10191666  1
  O  O24  1  0.69611307  0.55957661  0.60193942  1
  O  O25  1  0.44039594  0.30389802  0.89805888  1
