# generated using pymatgen
data_EuGe3
_symmetry_space_group_name_H-M   'P 1'
_cell_length_a   6.37708208
_cell_length_b   6.37708208
_cell_length_c   4.97324998
_cell_angle_alpha   90.00000000
_cell_angle_beta   90.00000000
_cell_angle_gamma   120.00000681
_symmetry_Int_Tables_number   1
_chemical_formula_structural   EuGe3
_chemical_formula_sum   'Eu2 Ge6'
_cell_volume   175.15192094
_cell_formula_units_Z   2
loop_
 _symmetry_equiv_pos_site_id
 _symmetry_equiv_pos_as_xyz
  1  'x, y, z'
loop_
 _atom_site_type_symbol
 _atom_site_label
 _atom_site_symmetry_multiplicity
 _atom_site_fract_x
 _atom_site_fract_y
 _atom_site_fract_z
 _atom_site_occupancy
  Eu  Eu0  1  0.33333300  0.66666700  0.75000000  1
  Eu  Eu1  1  0.66666700  0.33333300  0.25000000  1
  Ge  Ge2  1  0.13766221  0.86233779  0.25000000  1
  Ge  Ge3  1  0.13766221  0.27532442  0.25000000  1
  Ge  Ge4  1  0.72467558  0.86233779  0.25000000  1
  Ge  Ge5  1  0.86233768  0.13766232  0.75000000  1
  Ge  Ge6  1  0.86233768  0.72467537  0.75000000  1
  Ge  Ge7  1  0.27532463  0.13766232  0.75000000  1
