# generated using pymatgen
data_Tm2CoGe2
_symmetry_space_group_name_H-M   'P 1'
_cell_length_a   5.50635627
_cell_length_b   5.50635627
_cell_length_c   10.00410543
_cell_angle_alpha   64.82848729
_cell_angle_beta   64.82848729
_cell_angle_gamma   44.01468302
_symmetry_Int_Tables_number   1
_chemical_formula_structural   Tm2CoGe2
_chemical_formula_sum   'Tm4 Co2 Ge4'
_cell_volume   187.27559298
_cell_formula_units_Z   2
loop_
 _symmetry_equiv_pos_site_id
 _symmetry_equiv_pos_as_xyz
  1  'x, y, z'
loop_
 _atom_site_type_symbol
 _atom_site_label
 _atom_site_symmetry_multiplicity
 _atom_site_fract_x
 _atom_site_fract_y
 _atom_site_fract_z
 _atom_site_occupancy
  Tm  Tm0  1  0.18918315  0.18918315  0.88337553  1
  Tm  Tm1  1  0.81081685  0.81081685  0.11662447  1
  Tm  Tm2  1  0.00788282  0.00788282  0.66608474  1
  Tm  Tm3  1  0.99211718  0.99211718  0.33391526  1
  Co  Co4  1  0.27334606  0.27334606  0.34222369  1
  Co  Co5  1  0.72665394  0.72665394  0.65777631  1
  Ge  Ge6  1  0.48475801  0.48475801  0.87850715  1
  Ge  Ge7  1  0.51524199  0.51524199  0.12149285  1
  Ge  Ge8  1  0.34312273  0.34312273  0.56090440  1
  Ge  Ge9  1  0.65687727  0.65687727  0.43909560  1
