# generated using pymatgen
data_LaCeRu4
_symmetry_space_group_name_H-M   'P 1'
_cell_length_a   5.37484243
_cell_length_b   5.37484099
_cell_length_c   5.37484389
_cell_angle_alpha   59.99996414
_cell_angle_beta   59.99997311
_cell_angle_gamma   59.99995518
_symmetry_Int_Tables_number   1
_chemical_formula_structural   LaCeRu4
_chemical_formula_sum   'La1 Ce1 Ru4'
_cell_volume   109.79482249
_cell_formula_units_Z   1
loop_
 _symmetry_equiv_pos_site_id
 _symmetry_equiv_pos_as_xyz
  1  'x, y, z'
loop_
 _atom_site_type_symbol
 _atom_site_label
 _atom_site_symmetry_multiplicity
 _atom_site_fract_x
 _atom_site_fract_y
 _atom_site_fract_z
 _atom_site_occupancy
  La  La0  1  -0.00000000  0.99999800  0.00000100  1
  Ce  Ce1  1  0.25000000  0.25000100  0.25000000  1
  Ru  Ru2  1  0.62480720  0.62480720  0.12557939  1
  Ru  Ru3  1  0.62480720  0.12558039  0.62480720  1
  Ru  Ru4  1  0.12557939  0.62480720  0.62480620  1
  Ru  Ru5  1  0.62480620  0.62480720  0.62480620  1
