# generated using pymatgen
data_KBiPb
_symmetry_space_group_name_H-M   'P 1'
_cell_length_a   6.82715518
_cell_length_b   6.82715518
_cell_length_c   6.82715518
_cell_angle_alpha   121.96087566
_cell_angle_beta   119.91029934
_cell_angle_gamma   88.39644763
_symmetry_Int_Tables_number   1
_chemical_formula_structural   KBiPb
_chemical_formula_sum   'K2 Bi2 Pb2'
_cell_volume   221.64316188
_cell_formula_units_Z   2
loop_
 _symmetry_equiv_pos_site_id
 _symmetry_equiv_pos_as_xyz
  1  'x, y, z'
loop_
 _atom_site_type_symbol
 _atom_site_label
 _atom_site_symmetry_multiplicity
 _atom_site_fract_x
 _atom_site_fract_y
 _atom_site_fract_z
 _atom_site_occupancy
  K  K0  1  0.00054361  0.00054361  -0.00000000  1
  K  K1  1  0.25145461  0.75145461  0.50000000  1
  Bi  Bi2  1  0.62111151  0.36173418  0.25937733  1
  Bi  Bi3  1  0.10235885  0.36173418  0.74062267  1
  Pb  Pb4  1  0.63726621  0.37926433  0.74199812  1
  Pb  Pb5  1  0.63726621  0.89526709  0.25800188  1
