# generated using pymatgen
data_SmSbIr
_symmetry_space_group_name_H-M   'P 1'
_cell_length_a   4.54865075
_cell_length_b   7.32593290
_cell_length_c   7.92003320
_cell_angle_alpha   90.00000000
_cell_angle_beta   90.00000000
_cell_angle_gamma   90.00000000
_symmetry_Int_Tables_number   1
_chemical_formula_structural   SmSbIr
_chemical_formula_sum   'Sm4 Sb4 Ir4'
_cell_volume   263.92013895
_cell_formula_units_Z   4
loop_
 _symmetry_equiv_pos_site_id
 _symmetry_equiv_pos_as_xyz
  1  'x, y, z'
loop_
 _atom_site_type_symbol
 _atom_site_label
 _atom_site_symmetry_multiplicity
 _atom_site_fract_x
 _atom_site_fract_y
 _atom_site_fract_z
 _atom_site_occupancy
  Sm  Sm0  1  0.75000000  0.48560765  0.19252638  1
  Sm  Sm1  1  0.25000000  0.01439235  0.69252638  1
  Sm  Sm2  1  0.75000000  0.98560765  0.30747462  1
  Sm  Sm3  1  0.25000000  0.51439235  0.80747362  1
  Sb  Sb4  1  0.25000000  0.67679594  0.41220712  1
  Sb  Sb5  1  0.25000000  0.17679594  0.08779288  1
  Sb  Sb6  1  0.75000000  0.32320406  0.58779288  1
  Sb  Sb7  1  0.75000000  0.82320406  0.91220712  1
  Ir  Ir8  1  0.25000000  0.79634641  0.08949313  1
  Ir  Ir9  1  0.25000000  0.29634641  0.41050687  1
  Ir  Ir10  1  0.75000000  0.70365359  0.58949313  1
  Ir  Ir11  1  0.75000000  0.20365359  0.91050687  1
