# generated using pymatgen
data_EuZnPd
_symmetry_space_group_name_H-M   'P 1'
_cell_length_a   4.42921589
_cell_length_b   7.28821133
_cell_length_c   7.85662490
_cell_angle_alpha   90.08615350
_cell_angle_beta   90.00000000
_cell_angle_gamma   90.00000000
_symmetry_Int_Tables_number   1
_chemical_formula_structural   EuZnPd
_chemical_formula_sum   'Eu4 Zn4 Pd4'
_cell_volume   253.61990437
_cell_formula_units_Z   4
loop_
 _symmetry_equiv_pos_site_id
 _symmetry_equiv_pos_as_xyz
  1  'x, y, z'
loop_
 _atom_site_type_symbol
 _atom_site_label
 _atom_site_symmetry_multiplicity
 _atom_site_fract_x
 _atom_site_fract_y
 _atom_site_fract_z
 _atom_site_occupancy
  Eu  Eu0  1  0.25000000  0.01332824  0.30463777  1
  Eu  Eu1  1  0.25000000  0.51303744  0.19444105  1
  Eu  Eu2  1  0.75000000  0.98686387  0.69567746  1
  Eu  Eu3  1  0.75000000  0.48673281  0.80547628  1
  Zn  Zn4  1  0.25000000  0.66718404  0.57725047  1
  Zn  Zn5  1  0.25000000  0.16730787  0.92241529  1
  Zn  Zn6  1  0.75000000  0.33282053  0.42271739  1
  Zn  Zn7  1  0.75000000  0.83274367  0.07755492  1
  Pd  Pd8  1  0.25000000  0.29295407  0.60089652  1
  Pd  Pd9  1  0.25000000  0.79331066  0.89901079  1
  Pd  Pd10  1  0.75000000  0.70730692  0.39874933  1
  Pd  Pd11  1  0.75000000  0.20640987  0.10117373  1
