# generated using pymatgen
data_Ho4SiGe3
_symmetry_space_group_name_H-M   'P 1'
_cell_length_a   3.89778481
_cell_length_b   4.23755800
_cell_length_c   10.58984613
_cell_angle_alpha   90.00000000
_cell_angle_beta   90.00000000
_cell_angle_gamma   90.00000000
_symmetry_Int_Tables_number   1
_chemical_formula_structural   Ho4SiGe3
_chemical_formula_sum   'Ho4 Si1 Ge3'
_cell_volume   174.91343318
_cell_formula_units_Z   1
loop_
 _symmetry_equiv_pos_site_id
 _symmetry_equiv_pos_as_xyz
  1  'x, y, z'
loop_
 _atom_site_type_symbol
 _atom_site_label
 _atom_site_symmetry_multiplicity
 _atom_site_fract_x
 _atom_site_fract_y
 _atom_site_fract_z
 _atom_site_occupancy
  Ho  Ho0  1  -0.00000000  -0.00000000  0.14104149  1
  Ho  Ho1  1  -0.00000000  0.50000000  0.63775811  1
  Ho  Ho2  1  0.50000000  0.50000000  0.36147130  1
  Ho  Ho3  1  0.50000000  0.00000000  0.86071911  1
  Si  Si4  1  -0.00000000  -0.00000000  0.41864428  1
  Ge  Ge5  1  -0.00000000  0.50000000  0.91432427  1
  Ge  Ge6  1  0.50000000  0.50000000  0.08502551  1
  Ge  Ge7  1  0.50000000  -0.00000000  0.58101592  1
