# generated using pymatgen
data_GdGePt
_symmetry_space_group_name_H-M   'P 1'
_cell_length_a   4.38935065
_cell_length_b   7.11223704
_cell_length_c   7.60498655
_cell_angle_alpha   90.00136350
_cell_angle_beta   89.99679181
_cell_angle_gamma   90.01127271
_symmetry_Int_Tables_number   1
_chemical_formula_structural   GdGePt
_chemical_formula_sum   'Gd4 Ge4 Pt4'
_cell_volume   237.41324274
_cell_formula_units_Z   4
loop_
 _symmetry_equiv_pos_site_id
 _symmetry_equiv_pos_as_xyz
  1  'x, y, z'
loop_
 _atom_site_type_symbol
 _atom_site_label
 _atom_site_symmetry_multiplicity
 _atom_site_fract_x
 _atom_site_fract_y
 _atom_site_fract_z
 _atom_site_occupancy
  Gd  Gd0  1  0.75001314  0.00336167  0.79527488  1
  Gd  Gd1  1  0.74999148  0.50339107  0.70485466  1
  Gd  Gd2  1  0.24998592  0.99665241  0.20483368  1
  Gd  Gd3  1  0.25002012  0.49647157  0.29523918  1
  Ge  Ge4  1  0.74993910  0.68923137  0.08711014  1
  Ge  Ge5  1  0.75004142  0.18929203  0.41278846  1
  Ge  Ge6  1  0.25000063  0.31078978  0.91287219  1
  Ge  Ge7  1  0.25002410  0.81083942  0.58715837  1
  Pt  Pt8  1  0.74999882  0.29514959  0.08392964  1
  Pt  Pt9  1  0.75000566  0.79524215  0.41603871  1
  Pt  Pt10  1  0.25005138  0.70477216  0.91618904  1
  Pt  Pt11  1  0.24992822  0.20480580  0.58370906  1
