# generated using pymatgen
data_Cr3NiP4
_symmetry_space_group_name_H-M   'P 1'
_cell_length_a   3.09241293
_cell_length_b   5.31765847
_cell_length_c   5.99011178
_cell_angle_alpha   89.85461221
_cell_angle_beta   90.00000000
_cell_angle_gamma   90.00000000
_symmetry_Int_Tables_number   1
_chemical_formula_structural   Cr3NiP4
_chemical_formula_sum   'Cr3 Ni1 P4'
_cell_volume   98.50345184
_cell_formula_units_Z   1
loop_
 _symmetry_equiv_pos_site_id
 _symmetry_equiv_pos_as_xyz
  1  'x, y, z'
loop_
 _atom_site_type_symbol
 _atom_site_label
 _atom_site_symmetry_multiplicity
 _atom_site_fract_x
 _atom_site_fract_y
 _atom_site_fract_z
 _atom_site_occupancy
  Cr  Cr0  1  0.00000000  0.00814232  0.80467472  1
  Cr  Cr1  1  0.50000000  0.49418131  0.28974443  1
  Cr  Cr2  1  0.50000000  0.99511255  0.20282848  1
  Ni  Ni3  1  0.00000000  0.50592915  0.69713631  1
  P  P4  1  0.00000000  0.69814273  0.06673378  1
  P  P5  1  0.00000000  0.18697377  0.44007003  1
  P  P6  1  0.50000000  0.30453739  0.92947471  1
  P  P7  1  0.50000000  0.80698178  0.56933953  1
