# generated using pymatgen
data_Rb2Hf3OF12
_symmetry_space_group_name_H-M   'P 1'
_cell_length_a   10.83720270
_cell_length_b   10.83720270
_cell_length_c   10.83720311
_cell_angle_alpha   41.33193428
_cell_angle_beta   41.33193428
_cell_angle_gamma   41.33193677
_symmetry_Int_Tables_number   1
_chemical_formula_structural   Rb2Hf3OF12
_chemical_formula_sum   'Rb4 Hf6 O2 F24'
_cell_volume   501.48468128
_cell_formula_units_Z   2
loop_
 _symmetry_equiv_pos_site_id
 _symmetry_equiv_pos_as_xyz
  1  'x, y, z'
loop_
 _atom_site_type_symbol
 _atom_site_label
 _atom_site_symmetry_multiplicity
 _atom_site_fract_x
 _atom_site_fract_y
 _atom_site_fract_z
 _atom_site_occupancy
  Rb  Rb0  1  -0.00000000  -0.00000000  -0.00000000  1
  Rb  Rb1  1  0.50000000  0.50000000  0.50000000  1
  Rb  Rb2  1  0.13753767  0.13753767  0.13753767  1
  Rb  Rb3  1  0.86246233  0.86246233  0.86246233  1
  Hf  Hf4  1  0.57552054  0.57552054  0.02853535  1
  Hf  Hf5  1  0.02853535  0.57552054  0.57552054  1
  Hf  Hf6  1  0.57552054  0.02853535  0.57552054  1
  Hf  Hf7  1  0.42447946  0.97146465  0.42447946  1
  Hf  Hf8  1  0.97146465  0.42447946  0.42447946  1
  Hf  Hf9  1  0.42447946  0.42447946  0.97146465  1
  O  O10  1  0.28800910  0.28800910  0.28800910  1
  O  O11  1  0.71199090  0.71199090  0.71199090  1
  F  F12  1  0.37167491  0.70695161  0.70695161  1
  F  F13  1  0.70695161  0.37167491  0.70695161  1
  F  F14  1  0.70695161  0.70695161  0.37167491  1
  F  F15  1  0.62832509  0.29304839  0.29304839  1
  F  F16  1  0.29304839  0.62832509  0.29304839  1
  F  F17  1  0.29304839  0.29304839  0.62832509  1
  F  F18  1  0.08971680  0.59910911  0.08971680  1
  F  F19  1  0.08971680  0.08971680  0.59910911  1
  F  F20  1  0.00000000  0.35175336  0.64824664  1
  F  F21  1  0.35175336  0.64824664  -0.00000000  1
  F  F22  1  0.64824664  1.00000000  0.35175336  1
  F  F23  1  1.00000000  0.64824664  0.35175336  1
  F  F24  1  0.64824664  0.35175336  -0.00000000  1
  F  F25  1  0.35175336  0.00000000  0.64824664  1
  F  F26  1  0.08059519  0.64894522  0.64894522  1
  F  F27  1  0.64894522  0.64894522  0.08059519  1
  F  F28  1  0.64894522  0.08059519  0.64894522  1
  F  F29  1  0.35105478  0.91940481  0.35105478  1
  F  F30  1  0.91940481  0.35105478  0.35105478  1
  F  F31  1  0.35105478  0.35105478  0.91940481  1
  F  F32  1  0.91028320  0.40089089  0.91028320  1
  F  F33  1  0.40089089  0.91028320  0.91028320  1
  F  F34  1  0.91028320  0.91028320  0.40089089  1
  F  F35  1  0.59910911  0.08971680  0.08971680  1
