# generated using pymatgen
data_SiO2
_symmetry_space_group_name_H-M   'P 1'
_cell_length_a   5.03872740
_cell_length_b   11.16060569
_cell_length_c   11.16060575
_cell_angle_alpha   102.85897923
_cell_angle_beta   90.00000000
_cell_angle_gamma   90.00000000
_symmetry_Int_Tables_number   1
_chemical_formula_structural   SiO2
_chemical_formula_sum   'Si12 O24'
_cell_volume   611.87924442
_cell_formula_units_Z   12
loop_
 _symmetry_equiv_pos_site_id
 _symmetry_equiv_pos_as_xyz
  1  'x, y, z'
loop_
 _atom_site_type_symbol
 _atom_site_label
 _atom_site_symmetry_multiplicity
 _atom_site_fract_x
 _atom_site_fract_y
 _atom_site_fract_z
 _atom_site_occupancy
  Si  Si0  1  0.49873169  0.99474781  0.41644710  1
  Si  Si1  1  0.99873169  0.00525219  0.58355290  1
  Si  Si2  1  0.49873169  0.58355290  0.00525219  1
  Si  Si3  1  0.99873169  0.41644710  0.99474781  1
  Si  Si4  1  0.91235647  0.75365601  0.65717174  1
  Si  Si5  1  0.41235647  0.24634399  0.34282826  1
  Si  Si6  1  0.91235647  0.34282826  0.24634399  1
  Si  Si7  1  0.41235647  0.65717174  0.75365601  1
  Si  Si8  1  0.38696129  0.72568436  0.27431564  1
  Si  Si9  1  0.88696129  0.27431564  0.72568436  1
  Si  Si10  1  0.88788430  0.62195318  0.37804682  1
  Si  Si11  1  0.38788430  0.37804682  0.62195318  1
  O  O12  1  0.48436714  0.10787037  0.34955492  1
  O  O13  1  0.98436714  0.89212963  0.65044508  1
  O  O14  1  0.48436714  0.65044508  0.89212963  1
  O  O15  1  0.98436714  0.34955492  0.10787037  1
  O  O16  1  0.94066142  0.66314652  0.52332360  1
  O  O17  1  0.44066142  0.33685348  0.47667640  1
  O  O18  1  0.94066142  0.47667640  0.33685348  1
  O  O19  1  0.44066142  0.52332360  0.66314652  1
  O  O20  1  0.08567723  0.69464351  0.30535649  1
  O  O21  1  0.58567723  0.30535649  0.69464351  1
  O  O22  1  0.43301544  0.87134987  0.31588240  1
  O  O23  1  0.93301544  0.12865013  0.68411760  1
  O  O24  1  0.08585585  0.34711010  0.65288990  1
  O  O25  1  0.58585585  0.65288990  0.34711010  1
  O  O26  1  0.29316552  0.46979970  0.98459633  1
  O  O27  1  0.79316552  0.53020030  0.01540367  1
  O  O28  1  0.29316552  0.01540367  0.53020030  1
  O  O29  1  0.79316552  0.98459633  0.46979970  1
  O  O30  1  0.11311498  0.70735788  0.75008352  1
  O  O31  1  0.61311498  0.29264212  0.24991648  1
  O  O32  1  0.11311498  0.24991648  0.29264212  1
  O  O33  1  0.61311498  0.75008352  0.70735788  1
  O  O34  1  0.93301544  0.31588240  0.87134987  1
  O  O35  1  0.43301544  0.68411760  0.12865013  1
