# generated using pymatgen
data_CeSc3(BO3)4
_symmetry_space_group_name_H-M   'P 1'
_cell_length_a   6.26632393
_cell_length_b   6.26632393
_cell_length_c   6.26634485
_cell_angle_alpha   103.39714410
_cell_angle_beta   103.39714410
_cell_angle_gamma   103.37078075
_symmetry_Int_Tables_number   1
_chemical_formula_structural   CeSc3(BO3)4
_chemical_formula_sum   'Ce1 Sc3 B4 O12'
_cell_volume   222.04377559
_cell_formula_units_Z   1
loop_
 _symmetry_equiv_pos_site_id
 _symmetry_equiv_pos_as_xyz
  1  'x, y, z'
loop_
 _atom_site_type_symbol
 _atom_site_label
 _atom_site_symmetry_multiplicity
 _atom_site_fract_x
 _atom_site_fract_y
 _atom_site_fract_z
 _atom_site_occupancy
  Ce  Ce0  1  0.99977998  0.00022002  0.00000000  1
  Sc  Sc1  1  0.00003040  0.54815771  0.45197930  1
  Sc  Sc2  1  0.45184229  0.99996960  0.54802070  1
  Sc  Sc3  1  0.54818192  0.45181808  0.00000000  1
  B  B4  1  0.50002544  0.49997456  0.50000000  1
  B  B5  1  0.95022196  0.04977804  0.50000000  1
  B  B6  1  0.49995045  0.95017571  0.04972112  1
  B  B7  1  0.04982429  0.50004955  0.95027888  1
  O  O8  1  0.09034920  0.90965080  0.50000000  1
  O  O9  1  0.64028090  0.49996915  0.35978267  1
  O  O10  1  0.50003085  0.35971910  0.64021733  1
  O  O11  1  0.35976096  0.64023904  0.50000000  1
  O  O12  1  0.03084945  0.62754707  0.79936477  1
  O  O13  1  0.62730383  0.79910903  0.03093129  1
  O  O14  1  0.79908063  0.03076146  0.62717642  1
  O  O15  1  0.37245293  0.96915055  0.20063523  1
  O  O16  1  0.96923854  0.20091937  0.37282358  1
  O  O17  1  0.20089097  0.37269617  0.96906871  1
  O  O18  1  0.90969492  0.49978991  0.09031215  1
  O  O19  1  0.50021009  0.09030508  0.90968785  1
