# generated using pymatgen
data_ScSnPd
_symmetry_space_group_name_H-M   'P 1'
_cell_length_a   7.48229257
_cell_length_b   7.48229162
_cell_length_c   7.24166429
_cell_angle_alpha   90.00000000
_cell_angle_beta   90.00000000
_cell_angle_gamma   119.99999516
_symmetry_Int_Tables_number   1
_chemical_formula_structural   ScSnPd
_chemical_formula_sum   'Sc6 Sn6 Pd6'
_cell_volume   351.10608567
_cell_formula_units_Z   6
loop_
 _symmetry_equiv_pos_site_id
 _symmetry_equiv_pos_as_xyz
  1  'x, y, z'
loop_
 _atom_site_type_symbol
 _atom_site_label
 _atom_site_symmetry_multiplicity
 _atom_site_fract_x
 _atom_site_fract_y
 _atom_site_fract_z
 _atom_site_occupancy
  Sc  Sc0  1  0.40071378  0.01453518  0.25000000  1
  Sc  Sc1  1  0.61382140  0.59928622  0.25000000  1
  Sc  Sc2  1  0.98546482  0.38617860  0.25000000  1
  Sc  Sc3  1  0.38617860  0.98546482  0.75000000  1
  Sc  Sc4  1  0.59928622  0.61382140  0.75000000  1
  Sc  Sc5  1  0.01453518  0.40071378  0.75000000  1
  Sn  Sn6  1  0.72544556  0.00000000  -0.00000000  1
  Sn  Sn7  1  0.27455444  0.27455444  0.50000000  1
  Sn  Sn8  1  0.00000000  0.72544556  0.50000000  1
  Sn  Sn9  1  0.00000000  0.72544556  -0.00000000  1
  Sn  Sn10  1  0.27455444  0.27455444  -0.00000000  1
  Sn  Sn11  1  0.72544556  0.00000000  0.50000000  1
  Pd  Pd12  1  0.33333300  0.66666700  0.03184576  1
  Pd  Pd13  1  0.33333300  0.66666700  0.46815424  1
  Pd  Pd14  1  0.66666700  0.33333300  0.96815424  1
  Pd  Pd15  1  0.66666700  0.33333300  0.53184576  1
  Pd  Pd16  1  0.00000000  -0.00000000  0.25000000  1
  Pd  Pd17  1  0.00000000  -0.00000000  0.75000000  1
