# generated using pymatgen
data_KPF6
_symmetry_space_group_name_H-M   'P 1'
_cell_length_a   7.53562312
_cell_length_b   7.53562312
_cell_length_c   7.53562312
_cell_angle_alpha   90.00000000
_cell_angle_beta   90.00000000
_cell_angle_gamma   90.00000000
_symmetry_Int_Tables_number   1
_chemical_formula_structural   KPF6
_chemical_formula_sum   'K4 P4 F24'
_cell_volume   427.91499936
_cell_formula_units_Z   4
loop_
 _symmetry_equiv_pos_site_id
 _symmetry_equiv_pos_as_xyz
  1  'x, y, z'
loop_
 _atom_site_type_symbol
 _atom_site_label
 _atom_site_symmetry_multiplicity
 _atom_site_fract_x
 _atom_site_fract_y
 _atom_site_fract_z
 _atom_site_occupancy
  K  K0  1  0.50000000  0.50000000  0.50000000  1
  K  K1  1  0.00000000  0.50000000  0.00000000  1
  K  K2  1  0.00000000  0.00000000  0.50000000  1
  K  K3  1  0.50000000  0.00000000  0.00000000  1
  P  P4  1  0.00000000  0.00000000  0.00000000  1
  P  P5  1  0.50000000  0.00000000  0.50000000  1
  P  P6  1  0.50000000  0.50000000  0.00000000  1
  P  P7  1  0.00000000  0.50000000  0.50000000  1
  F  F8  1  0.63093199  0.15486075  0.57081565  1
  F  F9  1  0.13093199  0.34513925  0.42918435  1
  F  F10  1  0.36906801  0.65486075  0.92918435  1
  F  F11  1  0.34513925  0.42918435  0.13093199  1
  F  F12  1  0.92918435  0.36906801  0.65486075  1
  F  F13  1  0.42918435  0.13093199  0.34513925  1
  F  F14  1  0.15486075  0.57081565  0.63093199  1
  F  F15  1  0.57081565  0.63093199  0.15486075  1
  F  F16  1  0.13093199  0.15486075  0.92918435  1
  F  F17  1  0.92918435  0.13093199  0.15486075  1
  F  F18  1  0.15486075  0.92918435  0.13093199  1
  F  F19  1  0.34513925  0.07081565  0.63093199  1
  F  F20  1  0.42918435  0.36906801  0.84513925  1
  F  F21  1  0.84513925  0.42918435  0.36906801  1
  F  F22  1  0.57081565  0.86906801  0.65486075  1
  F  F23  1  0.07081565  0.63093199  0.34513925  1
  F  F24  1  0.65486075  0.57081565  0.86906801  1
  F  F25  1  0.63093199  0.34513925  0.07081565  1
  F  F26  1  0.86906801  0.65486075  0.57081565  1
  F  F27  1  0.36906801  0.84513925  0.42918435  1
  F  F28  1  0.86906801  0.84513925  0.07081565  1
  F  F29  1  0.07081565  0.86906801  0.84513925  1
  F  F30  1  0.84513925  0.07081565  0.86906801  1
  F  F31  1  0.65486075  0.92918435  0.36906801  1
