# generated using pymatgen
data_AlSb(WO4)2
_symmetry_space_group_name_H-M   'P 1'
_cell_length_a   5.07966700
_cell_length_b   5.39012270
_cell_length_c   6.19135289
_cell_angle_alpha   113.20187961
_cell_angle_beta   105.98644417
_cell_angle_gamma   97.89091076
_symmetry_Int_Tables_number   1
_chemical_formula_structural   AlSb(WO4)2
_chemical_formula_sum   'Al1 Sb1 W2 O8'
_cell_volume   143.87147462
_cell_formula_units_Z   1
loop_
 _symmetry_equiv_pos_site_id
 _symmetry_equiv_pos_as_xyz
  1  'x, y, z'
loop_
 _atom_site_type_symbol
 _atom_site_label
 _atom_site_symmetry_multiplicity
 _atom_site_fract_x
 _atom_site_fract_y
 _atom_site_fract_z
 _atom_site_occupancy
  Al  Al0  1  0.57305200  0.28548600  0.94407600  1
  Sb  Sb1  1  0.99741900  0.85081800  0.84795100  1
  W  W2  1  0.26485900  0.23144500  0.36842900  1
  W  W3  1  0.82986900  0.58692200  0.42506600  1
  O  O4  1  0.32096900  0.22213900  0.10412000  1
  O  O5  1  0.12103700  0.84108100  0.56126800  1
  O  O6  1  0.40780900  0.61521900  0.26636700  1
  O  O7  1  0.22846300  0.29451100  0.65590900  1
  O  O8  1  0.77095700  0.95265500  0.11842100  1
  O  O9  1  0.74340400  0.55535200  0.73137600  1
  O  O10  1  0.68349900  0.16141400  0.58286400  1
  O  O11  1  0.85856700  0.42055400  0.19805600  1
