# generated using pymatgen
data_ZrAu4
_symmetry_space_group_name_H-M   'P 1'
_cell_length_a   4.93081182
_cell_length_b   5.07944016
_cell_length_c   14.45290451
_cell_angle_alpha   90.00000000
_cell_angle_beta   90.00000000
_cell_angle_gamma   90.00000000
_symmetry_Int_Tables_number   1
_chemical_formula_structural   ZrAu4
_chemical_formula_sum   'Zr4 Au16'
_cell_volume   361.98402940
_cell_formula_units_Z   4
loop_
 _symmetry_equiv_pos_site_id
 _symmetry_equiv_pos_as_xyz
  1  'x, y, z'
loop_
 _atom_site_type_symbol
 _atom_site_label
 _atom_site_symmetry_multiplicity
 _atom_site_fract_x
 _atom_site_fract_y
 _atom_site_fract_z
 _atom_site_occupancy
  Zr  Zr0  1  0.25000000  0.65528054  0.09810112  1
  Zr  Zr1  1  0.75000000  0.34471946  0.90189888  1
  Zr  Zr2  1  0.25000000  0.15528054  0.40189888  1
  Zr  Zr3  1  0.75000000  0.84471946  0.59810112  1
  Au  Au4  1  0.75000000  0.84503937  0.79850288  1
  Au  Au5  1  0.25000000  0.15496063  0.20149712  1
  Au  Au6  1  0.75000000  0.34503937  0.70149712  1
  Au  Au7  1  0.25000000  0.65496063  0.29850288  1
  Au  Au8  1  0.75000000  0.83876016  0.39918144  1
  Au  Au9  1  0.25000000  0.16123984  0.60081856  1
  Au  Au10  1  0.75000000  0.33876016  0.10081856  1
  Au  Au11  1  0.25000000  0.66123984  0.89918144  1
  Au  Au12  1  0.75000000  0.82103477  0.19616917  1
  Au  Au13  1  0.25000000  0.17896523  0.80383083  1
  Au  Au14  1  0.75000000  0.32103477  0.30383083  1
  Au  Au15  1  0.25000000  0.67896523  0.69616917  1
  Au  Au16  1  0.25000000  0.66042957  0.49974600  1
  Au  Au17  1  0.75000000  0.33957043  0.50025400  1
  Au  Au18  1  0.25000000  0.16042957  0.00025400  1
  Au  Au19  1  0.75000000  0.83957043  -0.00025400  1
