# generated using pymatgen
data_Sr3Sn5
_symmetry_space_group_name_H-M   'P 1'
_cell_length_a   6.89564027
_cell_length_b   6.89564177
_cell_length_c   10.93198016
_cell_angle_alpha   90.00000429
_cell_angle_beta   90.00001420
_cell_angle_gamma   102.11519572
_symmetry_Int_Tables_number   1
_chemical_formula_structural   Sr3Sn5
_chemical_formula_sum   'Sr6 Sn10'
_cell_volume   508.23667656
_cell_formula_units_Z   2
loop_
 _symmetry_equiv_pos_site_id
 _symmetry_equiv_pos_as_xyz
  1  'x, y, z'
loop_
 _atom_site_type_symbol
 _atom_site_label
 _atom_site_symmetry_multiplicity
 _atom_site_fract_x
 _atom_site_fract_y
 _atom_site_fract_z
 _atom_site_occupancy
  Sr  Sr0  1  0.14824391  0.14824391  0.25000000  1
  Sr  Sr1  1  0.85175609  0.85175609  0.75000000  1
  Sr  Sr2  1  0.70359026  0.29640974  0.99999800  1
  Sr  Sr3  1  0.29640974  0.70359026  0.50000200  1
  Sr  Sr4  1  0.29640974  0.70359026  0.99999800  1
  Sr  Sr5  1  0.70359026  0.29640974  0.50000200  1
  Sn  Sn6  1  0.54514218  0.54514218  0.25000000  1
  Sn  Sn7  1  0.45485882  0.45485882  0.75000000  1
  Sn  Sn8  1  0.59215744  0.98765233  0.25000000  1
  Sn  Sn9  1  0.40784356  0.01234667  0.75000000  1
  Sn  Sn10  1  0.98765233  0.59215744  0.25000000  1
  Sn  Sn11  1  0.01234667  0.40784356  0.75000000  1
  Sn  Sn12  1  0.18898127  0.18898127  0.55379764  1
  Sn  Sn13  1  0.81101873  0.81101873  0.05379464  1
  Sn  Sn14  1  0.18898127  0.18898127  0.94620236  1
  Sn  Sn15  1  0.81101873  0.81101873  0.44620436  1
