# generated using pymatgen
data_Eu(AgGe)2
_symmetry_space_group_name_H-M   'P 1'
_cell_length_a   6.26330037
_cell_length_b   6.26330037
_cell_length_c   6.26330037
_cell_angle_alpha   139.16552701
_cell_angle_beta   139.16552701
_cell_angle_gamma   59.12254655
_symmetry_Int_Tables_number   1
_chemical_formula_structural   Eu(AgGe)2
_chemical_formula_sum   'Eu1 Ag2 Ge2'
_cell_volume   104.03771278
_cell_formula_units_Z   1
loop_
 _symmetry_equiv_pos_site_id
 _symmetry_equiv_pos_as_xyz
  1  'x, y, z'
loop_
 _atom_site_type_symbol
 _atom_site_label
 _atom_site_symmetry_multiplicity
 _atom_site_fract_x
 _atom_site_fract_y
 _atom_site_fract_z
 _atom_site_occupancy
  Eu  Eu0  1  -0.00000000  -0.00000000  -0.00000000  1
  Ag  Ag1  1  0.75000000  0.25000000  0.50000000  1
  Ag  Ag2  1  0.25000000  0.75000000  0.50000000  1
  Ge  Ge3  1  0.38854814  0.38854814  0.00000000  1
  Ge  Ge4  1  0.61145186  0.61145186  -0.00000000  1
