# generated using pymatgen
data_U8CoS17
_symmetry_space_group_name_H-M   'P 1'
_cell_length_a   7.89938932
_cell_length_b   7.89938932
_cell_length_c   10.31325536
_cell_angle_alpha   80.37678923
_cell_angle_beta   80.37678923
_cell_angle_gamma   64.79610728
_symmetry_Int_Tables_number   1
_chemical_formula_structural   U8CoS17
_chemical_formula_sum   'U8 Co1 S17'
_cell_volume   570.75720645
_cell_formula_units_Z   1
loop_
 _symmetry_equiv_pos_site_id
 _symmetry_equiv_pos_as_xyz
  1  'x, y, z'
loop_
 _atom_site_type_symbol
 _atom_site_label
 _atom_site_symmetry_multiplicity
 _atom_site_fract_x
 _atom_site_fract_y
 _atom_site_fract_z
 _atom_site_occupancy
  U  U0  1  0.18589096  0.69846016  0.70946019  1
  U  U1  1  0.69846016  0.18589096  0.70946019  1
  U  U2  1  0.81410904  0.30153984  0.29053981  1
  U  U3  1  0.30153984  0.81410904  0.29053981  1
  U  U4  1  0.20475600  0.20475600  0.54544769  1
  U  U5  1  0.79524400  0.79524400  0.45455231  1
  U  U6  1  0.68365503  0.68365503  0.98100204  1
  U  U7  1  0.31634497  0.31634497  0.01899796  1
  Co  Co8  1  -0.00000000  0.00000000  -0.00000000  1
  S  S9  1  0.82459372  0.43039151  0.53422567  1
  S  S10  1  0.43039151  0.82459372  0.53422567  1
  S  S11  1  0.17540628  0.56960849  0.46577433  1
  S  S12  1  0.56960849  0.17540628  0.46577433  1
  S  S13  1  0.05715942  0.67733400  0.97511936  1
  S  S14  1  0.67733400  0.05715942  0.97511936  1
  S  S15  1  0.94284058  0.32266600  0.02488064  1
  S  S16  1  0.32266600  0.94284058  0.02488064  1
  S  S17  1  0.05343271  0.05343271  0.77997918  1
  S  S18  1  0.94656729  0.94656729  0.22002082  1
  S  S19  1  0.20839410  0.20839410  0.27852372  1
  S  S20  1  0.79160590  0.79160590  0.72147628  1
  S  S21  1  0.30248585  0.30248585  0.75500201  1
  S  S22  1  0.69751415  0.69751415  0.24499799  1
  S  S23  1  0.51859653  0.51859653  0.83128581  1
  S  S24  1  0.48140347  0.48140347  0.16871419  1
  S  S25  1  -0.00000000  0.00000000  0.50000000  1
