# generated using pymatgen
data_K3YF6
_symmetry_space_group_name_H-M   'P 1'
_cell_length_a   6.28233632
_cell_length_b   6.56705088
_cell_length_c   8.92143049
_cell_angle_alpha   90.00000000
_cell_angle_beta   91.46343653
_cell_angle_gamma   90.00000000
_symmetry_Int_Tables_number   1
_chemical_formula_structural   K3YF6
_chemical_formula_sum   'K6 Y2 F12'
_cell_volume   367.94624980
_cell_formula_units_Z   2
loop_
 _symmetry_equiv_pos_site_id
 _symmetry_equiv_pos_as_xyz
  1  'x, y, z'
loop_
 _atom_site_type_symbol
 _atom_site_label
 _atom_site_symmetry_multiplicity
 _atom_site_fract_x
 _atom_site_fract_y
 _atom_site_fract_z
 _atom_site_occupancy
  K  K0  1  0.51944626  0.94368248  0.24314991  1
  K  K1  1  0.98055374  0.44368248  0.25685009  1
  K  K2  1  0.48055374  0.05631752  0.75685009  1
  K  K3  1  0.01944626  0.55631752  0.74314991  1
  K  K4  1  0.00000000  0.00000000  0.50000000  1
  K  K5  1  0.50000000  0.50000000  -0.00000000  1
  Y  Y6  1  0.50000000  0.50000000  0.50000000  1
  Y  Y7  1  0.00000000  0.00000000  -0.00000000  1
  F  F8  1  0.87969115  0.93663672  0.77412446  1
  F  F9  1  0.62030885  0.43663672  0.72587554  1
  F  F10  1  0.12030885  0.06336328  0.22587554  1
  F  F11  1  0.37969115  0.56336328  0.27412446  1
  F  F12  1  0.82852728  0.73181329  0.07649972  1
  F  F13  1  0.67147272  0.23181329  0.42350028  1
  F  F14  1  0.17147272  0.26818671  0.92350028  1
  F  F15  1  0.32852728  0.76818671  0.57649972  1
  F  F16  1  0.21943209  0.32244714  0.54988323  1
  F  F17  1  0.28056791  0.82244714  0.95011677  1
  F  F18  1  0.78056791  0.67755286  0.45011677  1
  F  F19  1  0.71943209  0.17755286  0.04988323  1
