# generated using pymatgen
data_Ta3Be2
_symmetry_space_group_name_H-M   'P 1'
_cell_length_a   3.32875490
_cell_length_b   6.51108039
_cell_length_c   6.51108039
_cell_angle_alpha   90.00000000
_cell_angle_beta   90.00000000
_cell_angle_gamma   90.00000000
_symmetry_Int_Tables_number   1
_chemical_formula_structural   Ta3Be2
_chemical_formula_sum   'Ta6 Be4'
_cell_volume   141.11979395
_cell_formula_units_Z   2
loop_
 _symmetry_equiv_pos_site_id
 _symmetry_equiv_pos_as_xyz
  1  'x, y, z'
loop_
 _atom_site_type_symbol
 _atom_site_label
 _atom_site_symmetry_multiplicity
 _atom_site_fract_x
 _atom_site_fract_y
 _atom_site_fract_z
 _atom_site_occupancy
  Ta  Ta0  1  -0.00000000  0.50000000  0.50000000  1
  Ta  Ta1  1  -0.00000000  -0.00000000  -0.00000000  1
  Ta  Ta2  1  0.50000000  0.17887918  0.67887918  1
  Ta  Ta3  1  0.50000000  0.82112082  0.32112082  1
  Ta  Ta4  1  0.50000000  0.32112082  0.17887918  1
  Ta  Ta5  1  0.50000000  0.67887918  0.82112082  1
  Be  Be6  1  -0.00000000  0.61343256  0.11343256  1
  Be  Be7  1  0.00000000  0.38656744  0.88656744  1
  Be  Be8  1  0.00000000  0.88656744  0.61343256  1
  Be  Be9  1  -0.00000000  0.11343256  0.38656744  1
