# generated using pymatgen
data_Na2US3
_symmetry_space_group_name_H-M   'P 1'
_cell_length_a   6.97585779
_cell_length_b   6.97585779
_cell_length_c   6.96884142
_cell_angle_alpha   80.30537928
_cell_angle_beta   80.30537928
_cell_angle_gamma   119.95998609
_symmetry_Int_Tables_number   1
_chemical_formula_structural   Na2US3
_chemical_formula_sum   'Na4 U2 S6'
_cell_volume   276.66327345
_cell_formula_units_Z   2
loop_
 _symmetry_equiv_pos_site_id
 _symmetry_equiv_pos_as_xyz
  1  'x, y, z'
loop_
 _atom_site_type_symbol
 _atom_site_label
 _atom_site_symmetry_multiplicity
 _atom_site_fract_x
 _atom_site_fract_y
 _atom_site_fract_z
 _atom_site_occupancy
  Na  Na0  1  0.00000000  0.00000000  -0.00000000  1
  Na  Na1  1  0.50000000  0.50000000  0.50000000  1
  Na  Na2  1  0.84005015  0.15994985  0.50000000  1
  Na  Na3  1  0.15994985  0.84005015  0.50000000  1
  U  U4  1  0.66727900  0.33272100  -0.00000000  1
  U  U5  1  0.33272100  0.66727900  -0.00000000  1
  S  S6  1  0.27743454  0.27743454  0.23095188  1
  S  S7  1  0.43262673  0.07727214  0.77074487  1
  S  S8  1  0.07727214  0.43262673  0.77074487  1
  S  S9  1  0.72256546  0.72256546  0.76904812  1
  S  S10  1  0.56737327  0.92272786  0.22925513  1
  S  S11  1  0.92272786  0.56737327  0.22925513  1
