# generated using pymatgen
data_Hf2Al3Zn
_symmetry_space_group_name_H-M   'P 1'
_cell_length_a   5.17950876
_cell_length_b   5.17950876
_cell_length_c   5.17950893
_cell_angle_alpha   60.96301352
_cell_angle_beta   60.96301352
_cell_angle_gamma   60.96301562
_symmetry_Int_Tables_number   1
_chemical_formula_structural   Hf2Al3Zn
_chemical_formula_sum   'Hf2 Al3 Zn1'
_cell_volume   100.38595035
_cell_formula_units_Z   1
loop_
 _symmetry_equiv_pos_site_id
 _symmetry_equiv_pos_as_xyz
  1  'x, y, z'
loop_
 _atom_site_type_symbol
 _atom_site_label
 _atom_site_symmetry_multiplicity
 _atom_site_fract_x
 _atom_site_fract_y
 _atom_site_fract_z
 _atom_site_occupancy
  Hf  Hf0  1  0.62453332  0.62453332  0.62453332  1
  Hf  Hf1  1  0.37546668  0.37546668  0.37546668  1
  Al  Al2  1  0.00000000  0.50000000  -0.00000000  1
  Al  Al3  1  0.50000000  0.00000000  -0.00000000  1
  Al  Al4  1  0.00000000  0.00000000  0.50000000  1
  Zn  Zn5  1  0.00000000  0.00000000  -0.00000000  1
