# generated using pymatgen
data_La3IrO7
_symmetry_space_group_name_H-M   'P 1'
_cell_length_a   6.74219880
_cell_length_b   6.74222260
_cell_length_c   7.62070540
_cell_angle_alpha   90.00125010
_cell_angle_beta   90.00158722
_cell_angle_gamma   112.95076467
_symmetry_Int_Tables_number   1
_chemical_formula_structural   La3IrO7
_chemical_formula_sum   'La6 Ir2 O14'
_cell_volume   318.99517961
_cell_formula_units_Z   2
loop_
 _symmetry_equiv_pos_site_id
 _symmetry_equiv_pos_as_xyz
  1  'x, y, z'
loop_
 _atom_site_type_symbol
 _atom_site_label
 _atom_site_symmetry_multiplicity
 _atom_site_fract_x
 _atom_site_fract_y
 _atom_site_fract_z
 _atom_site_occupancy
  La  La0  1  0.00000507  0.00000591  0.49999880  1
  La  La1  1  0.00000281  0.00000677  0.00000169  1
  La  La2  1  0.53519410  0.09359639  0.24999276  1
  La  La3  1  0.90638650  0.46477866  0.74998672  1
  La  La4  1  0.46479133  0.90638610  0.75000726  1
  La  La5  1  0.09359760  0.53519364  0.25000964  1
  Ir  Ir6  1  0.50000127  0.50000876  0.49999473  1
  Ir  Ir7  1  0.50000088  0.50000521  0.00000515  1
  O  O8  1  0.44470416  0.19339153  0.54260161  1
  O  O9  1  0.80663918  0.55530649  0.45739228  1
  O  O10  1  0.44467540  0.19334777  0.95740485  1
  O  O11  1  0.80662631  0.55531856  0.04260112  1
  O  O12  1  0.55529544  0.80660826  0.45739837  1
  O  O13  1  0.19337378  0.44469933  0.54259904  1
  O  O14  1  0.55532023  0.80665157  0.04259589  1
  O  O15  1  0.19338077  0.44468606  0.95740757  1
  O  O16  1  0.15992823  0.90016635  0.24999642  1
  O  O17  1  0.09983606  0.84007602  0.75000756  1
  O  O18  1  0.84006648  0.09982746  0.75000688  1
  O  O19  1  0.90017233  0.15993030  0.24999144  1
  O  O20  1  0.40772167  0.40772210  0.25000447  1
  O  O21  1  0.59228039  0.59228678  0.74999576  1
