# generated using pymatgen
data_Ce(As3Ru)4
_symmetry_space_group_name_H-M   'P 1'
_cell_length_a   7.38787845
_cell_length_b   7.38787962
_cell_length_c   7.38787904
_cell_angle_alpha   109.47121098
_cell_angle_beta   109.47120455
_cell_angle_gamma   109.47119806
_symmetry_Int_Tables_number   1
_chemical_formula_structural   Ce(As3Ru)4
_chemical_formula_sum   'Ce1 As12 Ru4'
_cell_volume   310.41142449
_cell_formula_units_Z   1
loop_
 _symmetry_equiv_pos_site_id
 _symmetry_equiv_pos_as_xyz
  1  'x, y, z'
loop_
 _atom_site_type_symbol
 _atom_site_label
 _atom_site_symmetry_multiplicity
 _atom_site_fract_x
 _atom_site_fract_y
 _atom_site_fract_z
 _atom_site_occupancy
  Ce  Ce0  1  0.00000000  0.00000000  0.00000000  1
  As  As1  1  0.85054879  0.65136208  0.50191087  1
  As  As2  1  0.14945121  0.34863792  0.49808913  1
  As  As3  1  0.14945121  0.65136208  0.80081229  1
  As  As4  1  0.85054879  0.34863792  0.19918771  1
  As  As5  1  0.65136208  0.50191087  0.85054879  1
  As  As6  1  0.34863792  0.49808913  0.14945121  1
  As  As7  1  0.65136208  0.80081229  0.14945121  1
  As  As8  1  0.34863792  0.19918771  0.85054879  1
  As  As9  1  0.50191087  0.85054879  0.65136208  1
  As  As10  1  0.49808913  0.14945121  0.34863792  1
  As  As11  1  0.80081229  0.14945121  0.65136208  1
  As  As12  1  0.19918771  0.85054879  0.34863792  1
  Ru  Ru13  1  0.50000000  0.50000000  0.50000000  1
  Ru  Ru14  1  0.50000000  0.00000000  0.00000000  1
  Ru  Ru15  1  0.00000000  0.50000000  0.00000000  1
  Ru  Ru16  1  0.00000000  0.00000000  0.50000000  1
