# generated using pymatgen
data_NaNd2Se3
_symmetry_space_group_name_H-M   'P 1'
_cell_length_a   7.34083890
_cell_length_b   7.34083890
_cell_length_c   7.34083890
_cell_angle_alpha   146.69756565
_cell_angle_beta   132.13274302
_cell_angle_gamma   59.56008146
_symmetry_Int_Tables_number   1
_chemical_formula_structural   NaNd2Se3
_chemical_formula_sum   'Na1 Nd2 Se3'
_cell_volume   159.64683424
_cell_formula_units_Z   1
loop_
 _symmetry_equiv_pos_site_id
 _symmetry_equiv_pos_as_xyz
  1  'x, y, z'
loop_
 _atom_site_type_symbol
 _atom_site_label
 _atom_site_symmetry_multiplicity
 _atom_site_fract_x
 _atom_site_fract_y
 _atom_site_fract_z
 _atom_site_occupancy
  Na  Na0  1  -0.00000000  -0.00000000  -0.00000000  1
  Nd  Nd1  1  0.66412424  0.66412424  0.00000000  1
  Nd  Nd2  1  0.33587576  0.33587576  -0.00000000  1
  Se  Se3  1  0.83270294  0.33270294  0.50000000  1
  Se  Se4  1  0.50000000  -0.00000000  0.50000000  1
  Se  Se5  1  0.16729706  0.66729706  0.50000000  1
