# generated using pymatgen
data_Ti2Si6Mo
_symmetry_space_group_name_H-M   'P 1'
_cell_length_a   4.68920620
_cell_length_b   4.68920620
_cell_length_c   6.48611588
_cell_angle_alpha   90.00000000
_cell_angle_beta   90.00000000
_cell_angle_gamma   120.03725273
_symmetry_Int_Tables_number   1
_chemical_formula_structural   Ti2Si6Mo
_chemical_formula_sum   'Ti2 Si6 Mo1'
_cell_volume   123.46698620
_cell_formula_units_Z   1
loop_
 _symmetry_equiv_pos_site_id
 _symmetry_equiv_pos_as_xyz
  1  'x, y, z'
loop_
 _atom_site_type_symbol
 _atom_site_label
 _atom_site_symmetry_multiplicity
 _atom_site_fract_x
 _atom_site_fract_y
 _atom_site_fract_z
 _atom_site_occupancy
  Ti  Ti0  1  0.50000000  0.00000000  0.66622900  1
  Ti  Ti1  1  0.00000000  0.50000000  0.33377100  1
  Si  Si2  1  0.16563967  0.83436033  -0.00000000  1
  Si  Si3  1  0.15668563  0.31620619  0.66732580  1
  Si  Si4  1  0.68379381  0.84331437  0.33267420  1
  Si  Si5  1  0.83436033  0.16563967  -0.00000000  1
  Si  Si6  1  0.84331437  0.68379381  0.66732580  1
  Si  Si7  1  0.31620619  0.15668563  0.33267420  1
  Mo  Mo8  1  0.50000000  0.50000000  0.00000000  1
