# generated using pymatgen
data_YGeRh
_symmetry_space_group_name_H-M   'P 1'
_cell_length_a   4.29393090
_cell_length_b   6.92236246
_cell_length_c   7.56254784
_cell_angle_alpha   90.00000000
_cell_angle_beta   90.00000000
_cell_angle_gamma   90.00000000
_symmetry_Int_Tables_number   1
_chemical_formula_structural   YGeRh
_chemical_formula_sum   'Y4 Ge4 Rh4'
_cell_volume   224.79027664
_cell_formula_units_Z   4
loop_
 _symmetry_equiv_pos_site_id
 _symmetry_equiv_pos_as_xyz
  1  'x, y, z'
loop_
 _atom_site_type_symbol
 _atom_site_label
 _atom_site_symmetry_multiplicity
 _atom_site_fract_x
 _atom_site_fract_y
 _atom_site_fract_z
 _atom_site_occupancy
  Y  Y0  1  0.25000000  0.50287110  0.69556097  1
  Y  Y1  1  0.25000000  0.00287110  0.80443903  1
  Y  Y2  1  0.75000000  0.49712890  0.30443903  1
  Y  Y3  1  0.75000000  0.99712890  0.19556097  1
  Ge  Ge4  1  0.25000000  0.79038342  0.39537073  1
  Ge  Ge5  1  0.25000000  0.29038342  0.10462927  1
  Ge  Ge6  1  0.75000000  0.20961658  0.60462927  1
  Ge  Ge7  1  0.75000000  0.70961658  0.89537073  1
  Rh  Rh8  1  0.25000000  0.15480437  0.43257460  1
  Rh  Rh9  1  0.25000000  0.65480437  0.06742540  1
  Rh  Rh10  1  0.75000000  0.84519563  0.56742540  1
  Rh  Rh11  1  0.75000000  0.34519563  0.93257460  1
