# generated using pymatgen
data_Er2Te3
_symmetry_space_group_name_H-M   'P 1'
_cell_length_a   7.48552167
_cell_length_b   7.48552065
_cell_length_c   13.66852011
_cell_angle_alpha   100.56944804
_cell_angle_beta   100.56944956
_cell_angle_gamma   109.28772816
_symmetry_Int_Tables_number   1
_chemical_formula_structural   Er2Te3
_chemical_formula_sum   'Er8 Te12'
_cell_volume   685.62028699
_cell_formula_units_Z   4
loop_
 _symmetry_equiv_pos_site_id
 _symmetry_equiv_pos_as_xyz
  1  'x, y, z'
loop_
 _atom_site_type_symbol
 _atom_site_label
 _atom_site_symmetry_multiplicity
 _atom_site_fract_x
 _atom_site_fract_y
 _atom_site_fract_z
 _atom_site_occupancy
  Er  Er0  1  0.37573246  0.12557958  0.25146321  1
  Er  Er1  1  0.87442042  0.62426754  0.24853679  1
  Er  Er2  1  0.62426754  0.87442042  0.74853679  1
  Er  Er3  1  0.12557958  0.37573246  0.75146321  1
  Er  Er4  1  0.04191230  0.79218641  0.58397262  1
  Er  Er5  1  0.20781359  0.95808770  0.91602738  1
  Er  Er6  1  0.95808770  0.20781359  0.41602738  1
  Er  Er7  1  0.79218641  0.04191230  0.08397262  1
  Te  Te8  1  0.54100243  0.28903873  0.08505968  1
  Te  Te9  1  0.20498105  0.95614567  0.41523809  1
  Te  Te10  1  0.71096127  0.45899757  0.41494032  1
  Te  Te11  1  0.04385433  0.79501895  0.08476191  1
  Te  Te12  1  0.45899757  0.71096127  0.91494032  1
  Te  Te13  1  0.79501895  0.04385433  0.58476191  1
  Te  Te14  1  0.28903873  0.54100243  0.58505968  1
  Te  Te15  1  0.95614567  0.20498105  0.91523809  1
  Te  Te16  1  0.62531951  0.87521178  0.24994004  1
  Te  Te17  1  0.12478822  0.37468049  0.25005996  1
  Te  Te18  1  0.37468049  0.12478822  0.75005996  1
  Te  Te19  1  0.87521178  0.62531951  0.74994004  1
