# generated using pymatgen
data_TbAlPt
_symmetry_space_group_name_H-M   'P 1'
_cell_length_a   4.40874134
_cell_length_b   6.93698714
_cell_length_c   7.71399821
_cell_angle_alpha   90.00000000
_cell_angle_beta   90.00000000
_cell_angle_gamma   90.00000000
_symmetry_Int_Tables_number   1
_chemical_formula_structural   TbAlPt
_chemical_formula_sum   'Tb4 Al4 Pt4'
_cell_volume   235.92015384
_cell_formula_units_Z   4
loop_
 _symmetry_equiv_pos_site_id
 _symmetry_equiv_pos_as_xyz
  1  'x, y, z'
loop_
 _atom_site_type_symbol
 _atom_site_label
 _atom_site_symmetry_multiplicity
 _atom_site_fract_x
 _atom_site_fract_y
 _atom_site_fract_z
 _atom_site_occupancy
  Tb  Tb0  1  0.75000000  0.47198619  0.81787038  1
  Tb  Tb1  1  0.75000000  0.97198619  0.68212962  1
  Tb  Tb2  1  0.25000000  0.52801381  0.18212962  1
  Tb  Tb3  1  0.25000000  0.02801381  0.31787038  1
  Al  Al4  1  0.75000000  0.35547959  0.43469451  1
  Al  Al5  1  0.75000000  0.85547959  0.06530549  1
  Al  Al6  1  0.25000000  0.64452041  0.56530549  1
  Al  Al7  1  0.25000000  0.14452041  0.93469451  1
  Pt  Pt8  1  0.75000000  0.22522152  0.11485540  1
  Pt  Pt9  1  0.75000000  0.72522152  0.38514460  1
  Pt  Pt10  1  0.25000000  0.77477848  0.88514560  1
  Pt  Pt11  1  0.25000000  0.27477848  0.61485440  1
