# generated using pymatgen
data_TbGaAg
_symmetry_space_group_name_H-M   'P 1'
_cell_length_a   5.68770737
_cell_length_b   5.68770737
_cell_length_c   7.19290143
_cell_angle_alpha   52.13282943
_cell_angle_beta   52.13282943
_cell_angle_gamma   46.89529548
_symmetry_Int_Tables_number   1
_chemical_formula_structural   TbGaAg
_chemical_formula_sum   'Tb2 Ga2 Ag2'
_cell_volume   126.25920219
_cell_formula_units_Z   2
loop_
 _symmetry_equiv_pos_site_id
 _symmetry_equiv_pos_as_xyz
  1  'x, y, z'
loop_
 _atom_site_type_symbol
 _atom_site_label
 _atom_site_symmetry_multiplicity
 _atom_site_fract_x
 _atom_site_fract_y
 _atom_site_fract_z
 _atom_site_occupancy
  Tb  Tb0  1  0.46646642  0.46646642  0.29046967  1
  Tb  Tb1  1  0.53353358  0.53353358  0.70953033  1
  Ga  Ga2  1  0.15778471  0.15778471  0.88279515  1
  Ga  Ga3  1  0.84221529  0.84221529  0.11720485  1
  Ag  Ag4  1  0.82661430  0.82661430  0.72190898  1
  Ag  Ag5  1  0.17338570  0.17338570  0.27809102  1
