# generated using pymatgen
data_USiRu
_symmetry_space_group_name_H-M   'P 1'
_cell_length_a   4.20765568
_cell_length_b   6.53986833
_cell_length_c   7.48603040
_cell_angle_alpha   89.99722314
_cell_angle_beta   90.00000000
_cell_angle_gamma   90.00000000
_symmetry_Int_Tables_number   1
_chemical_formula_structural   USiRu
_chemical_formula_sum   'U4 Si4 Ru4'
_cell_volume   205.99694689
_cell_formula_units_Z   4
loop_
 _symmetry_equiv_pos_site_id
 _symmetry_equiv_pos_as_xyz
  1  'x, y, z'
loop_
 _atom_site_type_symbol
 _atom_site_label
 _atom_site_symmetry_multiplicity
 _atom_site_fract_x
 _atom_site_fract_y
 _atom_site_fract_z
 _atom_site_occupancy
  U  U0  1  0.25000000  0.34739155  0.49369934  1
  U  U1  1  0.25000000  0.15251054  -0.00628943  1
  U  U2  1  0.75000000  0.65258207  0.50630747  1
  U  U3  1  0.75000000  0.84753557  0.00628271  1
  Si  Si4  1  0.25000000  0.88757773  0.30496204  1
  Si  Si5  1  0.25000000  0.61242808  0.80497403  1
  Si  Si6  1  0.75000000  0.11242309  0.69502147  1
  Si  Si7  1  0.75000000  0.38757047  0.19503380  1
  Ru  Ru8  1  0.25000000  0.92808949  0.62854509  1
  Ru  Ru9  1  0.25000000  0.57198066  0.12851547  1
  Ru  Ru10  1  0.75000000  0.07194712  0.37146100  1
  Ru  Ru11  1  0.75000000  0.42796262  0.87148602  1
