# generated using pymatgen
data_Zr5AlPb3
_symmetry_space_group_name_H-M   'P 1'
_cell_length_a   8.82227312
_cell_length_b   8.82227312
_cell_length_c   5.95611145
_cell_angle_alpha   90.00000000
_cell_angle_beta   90.00000000
_cell_angle_gamma   119.99999133
_symmetry_Int_Tables_number   1
_chemical_formula_structural   Zr5AlPb3
_chemical_formula_sum   'Zr10 Al2 Pb6'
_cell_volume   401.47128003
_cell_formula_units_Z   2
loop_
 _symmetry_equiv_pos_site_id
 _symmetry_equiv_pos_as_xyz
  1  'x, y, z'
loop_
 _atom_site_type_symbol
 _atom_site_label
 _atom_site_symmetry_multiplicity
 _atom_site_fract_x
 _atom_site_fract_y
 _atom_site_fract_z
 _atom_site_occupancy
  Zr  Zr0  1  0.66666700  0.33333300  -0.00000000  1
  Zr  Zr1  1  0.33333300  0.66666700  -0.00000000  1
  Zr  Zr2  1  0.33333300  0.66666700  0.50000000  1
  Zr  Zr3  1  0.66666700  0.33333300  0.50000000  1
  Zr  Zr4  1  0.73375503  0.73375503  0.75000000  1
  Zr  Zr5  1  0.26624497  -0.00000000  0.75000000  1
  Zr  Zr6  1  -0.00000000  0.26624497  0.75000000  1
  Zr  Zr7  1  0.26624497  0.26624497  0.25000000  1
  Zr  Zr8  1  0.73375503  0.00000000  0.25000000  1
  Zr  Zr9  1  0.00000000  0.73375503  0.25000000  1
  Al  Al10  1  0.00000000  -0.00000000  -0.00000000  1
  Al  Al11  1  0.00000000  -0.00000000  0.50000000  1
  Pb  Pb12  1  0.38646674  0.38646674  0.75000000  1
  Pb  Pb13  1  0.61353326  0.00000000  0.75000000  1
  Pb  Pb14  1  0.00000000  0.61353326  0.75000000  1
  Pb  Pb15  1  0.61353326  0.61353326  0.25000000  1
  Pb  Pb16  1  0.38646674  -0.00000000  0.25000000  1
  Pb  Pb17  1  -0.00000000  0.38646674  0.25000000  1
