# generated using pymatgen
data_PbAu2
_symmetry_space_group_name_H-M   'P 1'
_cell_length_a   5.69126265
_cell_length_b   7.99194602
_cell_length_c   11.43004968
_cell_angle_alpha   90.00000000
_cell_angle_beta   90.00000000
_cell_angle_gamma   90.00000000
_symmetry_Int_Tables_number   1
_chemical_formula_structural   PbAu2
_chemical_formula_sum   'Pb8 Au16'
_cell_volume   519.88739586
_cell_formula_units_Z   8
loop_
 _symmetry_equiv_pos_site_id
 _symmetry_equiv_pos_as_xyz
  1  'x, y, z'
loop_
 _atom_site_type_symbol
 _atom_site_label
 _atom_site_symmetry_multiplicity
 _atom_site_fract_x
 _atom_site_fract_y
 _atom_site_fract_z
 _atom_site_occupancy
  Pb  Pb0  1  0.98723602  0.62648173  0.37516947  1
  Pb  Pb1  1  0.51276398  0.87351827  0.87516847  1
  Pb  Pb2  1  0.51276398  0.12648173  0.62483153  1
  Pb  Pb3  1  0.98723602  0.37351827  0.12483053  1
  Pb  Pb4  1  0.01276398  0.37351827  0.62483153  1
  Pb  Pb5  1  0.48723602  0.12648173  0.12483053  1
  Pb  Pb6  1  0.48723602  0.87351827  0.37516947  1
  Pb  Pb7  1  0.01276398  0.62648173  0.87516847  1
  Au  Au8  1  0.03023242  -0.00000000  0.25000000  1
  Au  Au9  1  0.46976758  0.50000000  0.75000000  1
  Au  Au10  1  0.96976758  -0.00000000  0.75000000  1
  Au  Au11  1  0.53023242  0.50000000  0.25000000  1
  Au  Au12  1  0.21120497  0.72135905  0.12670799  1
  Au  Au13  1  0.28879503  0.77864095  0.62670799  1
  Au  Au14  1  0.28879503  0.22135905  0.87329201  1
  Au  Au15  1  0.21120497  0.27864095  0.37329201  1
  Au  Au16  1  0.78879503  0.27864095  0.87329201  1
  Au  Au17  1  0.71120497  0.22135905  0.37329201  1
  Au  Au18  1  0.71120497  0.77864095  0.12670799  1
  Au  Au19  1  0.78879503  0.72135905  0.62670799  1
  Au  Au20  1  0.00000000  0.00000000  0.50000000  1
  Au  Au21  1  0.50000000  0.50000000  -0.00000000  1
  Au  Au22  1  0.50000000  0.50000000  0.50000000  1
  Au  Au23  1  0.00000000  -0.00000000  0.00000000  1
