# generated using pymatgen
data_CaAs3
_symmetry_space_group_name_H-M   'P 1'
_cell_length_a   5.89143958
_cell_length_b   5.88922796
_cell_length_c   5.96211908
_cell_angle_alpha   80.30960677
_cell_angle_beta   70.04568073
_cell_angle_gamma   75.94394121
_symmetry_Int_Tables_number   1
_chemical_formula_structural   CaAs3
_chemical_formula_sum   'Ca2 As6'
_cell_volume   187.79114126
_cell_formula_units_Z   2
loop_
 _symmetry_equiv_pos_site_id
 _symmetry_equiv_pos_as_xyz
  1  'x, y, z'
loop_
 _atom_site_type_symbol
 _atom_site_label
 _atom_site_symmetry_multiplicity
 _atom_site_fract_x
 _atom_site_fract_y
 _atom_site_fract_z
 _atom_site_occupancy
  Ca  Ca0  1  0.65624318  0.68386895  0.62993935  1
  Ca  Ca1  1  0.34375682  0.31613105  0.37006065  1
  As  As2  1  0.78425637  0.00828256  0.01452446  1
  As  As3  1  0.21574363  0.99171744  0.98547554  1
  As  As4  1  0.18565332  0.85758494  0.40492016  1
  As  As5  1  0.81434668  0.14241506  0.59507984  1
  As  As6  1  0.78161761  0.58973825  0.09396593  1
  As  As7  1  0.21838339  0.41026175  0.90603407  1
