# generated using pymatgen
data_Tb2Au
_symmetry_space_group_name_H-M   'P 1'
_cell_length_a   4.97480589
_cell_length_b   7.11026814
_cell_length_c   8.92548935
_cell_angle_alpha   90.00000000
_cell_angle_beta   90.00000000
_cell_angle_gamma   90.00000000
_symmetry_Int_Tables_number   1
_chemical_formula_structural   Tb2Au
_chemical_formula_sum   'Tb8 Au4'
_cell_volume   315.71422850
_cell_formula_units_Z   4
loop_
 _symmetry_equiv_pos_site_id
 _symmetry_equiv_pos_as_xyz
  1  'x, y, z'
loop_
 _atom_site_type_symbol
 _atom_site_label
 _atom_site_symmetry_multiplicity
 _atom_site_fract_x
 _atom_site_fract_y
 _atom_site_fract_z
 _atom_site_occupancy
  Tb  Tb0  1  0.75000000  0.64875559  0.58469405  1
  Tb  Tb1  1  0.75000000  0.14875559  0.91530595  1
  Tb  Tb2  1  0.25000000  0.35124441  0.41530595  1
  Tb  Tb3  1  0.25000000  0.85124441  0.08469405  1
  Tb  Tb4  1  0.75000000  0.00973260  0.32537722  1
  Tb  Tb5  1  0.75000000  0.50973360  0.17462378  1
  Tb  Tb6  1  0.25000000  0.99026640  0.67462378  1
  Tb  Tb7  1  0.25000000  0.49026740  0.82537722  1
  Au  Au8  1  0.75000000  0.24248418  0.59457831  1
  Au  Au9  1  0.75000000  0.74248318  0.90542069  1
  Au  Au10  1  0.25000000  0.75751682  0.40542069  1
  Au  Au11  1  0.25000000  0.25751582  0.09457831  1
