# generated using pymatgen
data_GdNiC2
_symmetry_space_group_name_H-M   'P 1'
_cell_length_a   3.75583333
_cell_length_b   3.75583963
_cell_length_c   3.67701697
_cell_angle_alpha   90.00000000
_cell_angle_beta   90.00000000
_cell_angle_gamma   106.45281435
_symmetry_Int_Tables_number   1
_chemical_formula_structural   GdNiC2
_chemical_formula_sum   'Gd1 Ni1 C2'
_cell_volume   49.74526331
_cell_formula_units_Z   1
loop_
 _symmetry_equiv_pos_site_id
 _symmetry_equiv_pos_as_xyz
  1  'x, y, z'
loop_
 _atom_site_type_symbol
 _atom_site_label
 _atom_site_symmetry_multiplicity
 _atom_site_fract_x
 _atom_site_fract_y
 _atom_site_fract_z
 _atom_site_occupancy
  Gd  Gd0  1  0.00035511  0.99964589  0.00000000  1
  Ni  Ni1  1  0.61113051  0.38886949  0.50000000  1
  C  C2  1  0.45385989  0.85034452  0.50000000  1
  C  C3  1  0.14965548  0.54614011  0.50000000  1
