# generated using pymatgen
data_Tm3Ge4
_symmetry_space_group_name_H-M   'P 1'
_cell_length_a   3.99719959
_cell_length_b   5.61311674
_cell_length_c   14.06274302
_cell_angle_alpha   90.00000000
_cell_angle_beta   90.00000000
_cell_angle_gamma   110.85834051
_symmetry_Int_Tables_number   1
_chemical_formula_structural   Tm3Ge4
_chemical_formula_sum   'Tm6 Ge8'
_cell_volume   294.84403324
_cell_formula_units_Z   2
loop_
 _symmetry_equiv_pos_site_id
 _symmetry_equiv_pos_as_xyz
  1  'x, y, z'
loop_
 _atom_site_type_symbol
 _atom_site_label
 _atom_site_symmetry_multiplicity
 _atom_site_fract_x
 _atom_site_fract_y
 _atom_site_fract_z
 _atom_site_occupancy
  Tm  Tm0  1  0.33165936  0.66331972  0.40310772  1
  Tm  Tm1  1  0.66834064  0.33668028  0.59689228  1
  Tm  Tm2  1  0.33165936  0.66331972  0.09689228  1
  Tm  Tm3  1  0.66834064  0.33668028  0.90310772  1
  Tm  Tm4  1  0.04856803  0.09713705  0.25000000  1
  Tm  Tm5  1  0.95143197  0.90286295  0.75000000  1
  Ge  Ge6  1  0.37856317  0.75712634  0.60870802  1
  Ge  Ge7  1  0.62143683  0.24287366  0.39129198  1
  Ge  Ge8  1  0.37856317  0.75712634  0.89129198  1
  Ge  Ge9  1  0.62143683  0.24287366  0.10870802  1
  Ge  Ge10  1  0.77769952  0.55540204  0.25000000  1
  Ge  Ge11  1  0.22230048  0.44459796  0.75000000  1
  Ge  Ge12  1  0.00000000  0.00000000  0.50000000  1
  Ge  Ge13  1  0.00000000  0.00000000  0.00000000  1
