# generated using pymatgen
data_Lu4Ni2C5
_symmetry_space_group_name_H-M   'P 1'
_cell_length_a   3.50166793
_cell_length_b   3.62363310
_cell_length_c   11.30983351
_cell_angle_alpha   90.00000000
_cell_angle_beta   90.00000000
_cell_angle_gamma   90.00000000
_symmetry_Int_Tables_number   1
_chemical_formula_structural   Lu4Ni2C5
_chemical_formula_sum   'Lu4 Ni2 C5'
_cell_volume   143.50776097
_cell_formula_units_Z   1
loop_
 _symmetry_equiv_pos_site_id
 _symmetry_equiv_pos_as_xyz
  1  'x, y, z'
loop_
 _atom_site_type_symbol
 _atom_site_label
 _atom_site_symmetry_multiplicity
 _atom_site_fract_x
 _atom_site_fract_y
 _atom_site_fract_z
 _atom_site_occupancy
  Lu  Lu0  1  0.50000000  0.50004397  0.20255090  1
  Lu  Lu1  1  0.50000000  0.50004397  0.79744910  1
  Lu  Lu2  1  0.50000000  0.21241907  0.50000000  1
  Lu  Lu3  1  -0.00000000  0.99935091  -0.00000000  1
  Ni  Ni4  1  -0.00000000  0.70114881  0.38434863  1
  Ni  Ni5  1  -0.00000000  0.70114881  0.61565137  1
  C  C6  1  -0.00000000  0.99801837  0.22753600  1
  C  C7  1  -0.00000000  0.99801837  0.77246400  1
  C  C8  1  -0.00000000  0.20057768  0.33282258  1
  C  C9  1  0.00000000  0.20057768  0.66717742  1
  C  C10  1  0.50000000  0.49014936  -0.00000000  1
