# generated using pymatgen
data_LaAsS
_symmetry_space_group_name_H-M   'P 1'
_cell_length_a   3.97729069
_cell_length_b   4.07495410
_cell_length_c   17.78833694
_cell_angle_alpha   90.00000000
_cell_angle_beta   90.00000000
_cell_angle_gamma   90.00000000
_symmetry_Int_Tables_number   1
_chemical_formula_structural   LaAsS
_chemical_formula_sum   'La4 As4 S4'
_cell_volume   288.30050423
_cell_formula_units_Z   4
loop_
 _symmetry_equiv_pos_site_id
 _symmetry_equiv_pos_as_xyz
  1  'x, y, z'
loop_
 _atom_site_type_symbol
 _atom_site_label
 _atom_site_symmetry_multiplicity
 _atom_site_fract_x
 _atom_site_fract_y
 _atom_site_fract_z
 _atom_site_occupancy
  La  La0  1  0.25000000  0.76743946  0.14650432  1
  La  La1  1  0.25000000  0.73256054  0.64650432  1
  La  La2  1  0.75000000  0.23256054  0.85349568  1
  La  La3  1  0.75000000  0.26743946  0.35349568  1
  As  As4  1  0.75000000  0.80334973  0.49748804  1
  As  As5  1  0.75000000  0.69665027  0.99748804  1
  As  As6  1  0.25000000  0.19665027  0.50251196  1
  As  As7  1  0.25000000  0.30334973  0.00251196  1
  S  S8  1  0.25000000  0.76437682  0.31434311  1
  S  S9  1  0.25000000  0.73562318  0.81434311  1
  S  S10  1  0.75000000  0.23562318  0.68565689  1
  S  S11  1  0.75000000  0.26437682  0.18565689  1
