# generated using pymatgen
data_YbTmS2
_symmetry_space_group_name_H-M   'P 1'
_cell_length_a   6.63656203
_cell_length_b   6.63656203
_cell_length_c   6.63656199
_cell_angle_alpha   33.30968226
_cell_angle_beta   33.30968226
_cell_angle_gamma   33.30968250
_symmetry_Int_Tables_number   1
_chemical_formula_structural   YbTmS2
_chemical_formula_sum   'Yb1 Tm1 S2'
_cell_volume   78.48747329
_cell_formula_units_Z   1
loop_
 _symmetry_equiv_pos_site_id
 _symmetry_equiv_pos_as_xyz
  1  'x, y, z'
loop_
 _atom_site_type_symbol
 _atom_site_label
 _atom_site_symmetry_multiplicity
 _atom_site_fract_x
 _atom_site_fract_y
 _atom_site_fract_z
 _atom_site_occupancy
  Yb  Yb0  1  0.00000000  0.00000000  0.00000000  1
  Tm  Tm1  1  0.50000000  0.50000000  0.50000000  1
  S  S2  1  0.25062747  0.25062747  0.25062747  1
  S  S3  1  0.74937253  0.74937253  0.74937253  1
