# generated using pymatgen
data_Tl2Rh3S2
_symmetry_space_group_name_H-M   'P 1'
_cell_length_a   5.73485092
_cell_length_b   5.73451804
_cell_length_c   5.73485203
_cell_angle_alpha   59.55316551
_cell_angle_beta   59.54803761
_cell_angle_gamma   59.55316287
_symmetry_Int_Tables_number   1
_chemical_formula_structural   Tl2Rh3S2
_chemical_formula_sum   'Tl2 Rh3 S2'
_cell_volume   132.00021399
_cell_formula_units_Z   1
loop_
 _symmetry_equiv_pos_site_id
 _symmetry_equiv_pos_as_xyz
  1  'x, y, z'
loop_
 _atom_site_type_symbol
 _atom_site_label
 _atom_site_symmetry_multiplicity
 _atom_site_fract_x
 _atom_site_fract_y
 _atom_site_fract_z
 _atom_site_occupancy
  Tl  Tl0  1  0.00000000  0.00000000  -0.00000000  1
  Tl  Tl1  1  0.50000000  0.50000000  0.50000000  1
  Rh  Rh2  1  0.00000000  0.00000000  0.50000000  1
  Rh  Rh3  1  0.50000000  0.00000000  -0.00000000  1
  Rh  Rh4  1  0.00000000  0.50000000  -0.00000000  1
  S  S5  1  0.71971700  0.71972758  0.71971700  1
  S  S6  1  0.28028300  0.28027242  0.28028300  1
