# generated using pymatgen
data_DyGa6
_symmetry_space_group_name_H-M   'P 1'
_cell_length_a   5.91371025
_cell_length_b   5.91371025
_cell_length_c   7.49441684
_cell_angle_alpha   90.00000000
_cell_angle_beta   90.00000000
_cell_angle_gamma   90.00000000
_symmetry_Int_Tables_number   1
_chemical_formula_structural   DyGa6
_chemical_formula_sum   'Dy2 Ga12'
_cell_volume   262.09451281
_cell_formula_units_Z   2
loop_
 _symmetry_equiv_pos_site_id
 _symmetry_equiv_pos_as_xyz
  1  'x, y, z'
loop_
 _atom_site_type_symbol
 _atom_site_label
 _atom_site_symmetry_multiplicity
 _atom_site_fract_x
 _atom_site_fract_y
 _atom_site_fract_z
 _atom_site_occupancy
  Dy  Dy0  1  0.50000000  0.00000000  -0.00000000  1
  Dy  Dy1  1  0.00000000  0.50000000  -0.00000000  1
  Ga  Ga2  1  0.50000000  0.50000000  0.16133988  1
  Ga  Ga3  1  0.00000000  0.00000000  0.16133988  1
  Ga  Ga4  1  0.00000000  0.00000000  0.83866012  1
  Ga  Ga5  1  0.50000000  0.50000000  0.83866012  1
  Ga  Ga6  1  0.81514906  0.68485094  0.34963215  1
  Ga  Ga7  1  0.31514906  0.81514906  0.34963215  1
  Ga  Ga8  1  0.68485094  0.18485094  0.34963215  1
  Ga  Ga9  1  0.18485094  0.31514906  0.34963215  1
  Ga  Ga10  1  0.68485094  0.81514906  0.65036785  1
  Ga  Ga11  1  0.18485094  0.68485094  0.65036785  1
  Ga  Ga12  1  0.81514906  0.31514906  0.65036785  1
  Ga  Ga13  1  0.31514906  0.18485094  0.65036785  1
