# generated using pymatgen
data_Sc2BC2
_symmetry_space_group_name_H-M   'P 1'
_cell_length_a   3.34021172
_cell_length_b   3.34021105
_cell_length_c   5.83416016
_cell_angle_alpha   106.63438935
_cell_angle_beta   106.63438329
_cell_angle_gamma   89.99999240
_symmetry_Int_Tables_number   1
_chemical_formula_structural   Sc2BC2
_chemical_formula_sum   'Sc2 B1 C2'
_cell_volume   59.51919502
_cell_formula_units_Z   1
loop_
 _symmetry_equiv_pos_site_id
 _symmetry_equiv_pos_as_xyz
  1  'x, y, z'
loop_
 _atom_site_type_symbol
 _atom_site_label
 _atom_site_symmetry_multiplicity
 _atom_site_fract_x
 _atom_site_fract_y
 _atom_site_fract_z
 _atom_site_occupancy
  Sc  Sc0  1  0.65230959  0.65230959  0.30461918  1
  Sc  Sc1  1  0.34769041  0.34769041  0.69538082  1
  B  B2  1  0.00000000  0.00000000  -0.00000000  1
  C  C3  1  0.86153242  0.86153242  0.72306585  1
  C  C4  1  0.13846758  0.13846758  0.27693415  1
