# generated using pymatgen
data_Yb3H
_symmetry_space_group_name_H-M   'P 1'
_cell_length_a   6.56504528
_cell_length_b   6.56504528
_cell_length_c   5.37940598
_cell_angle_alpha   90.00000000
_cell_angle_beta   90.00000000
_cell_angle_gamma   119.99999770
_symmetry_Int_Tables_number   1
_chemical_formula_structural   Yb3H
_chemical_formula_sum   'Yb6 H2'
_cell_volume   200.78922997
_cell_formula_units_Z   2
loop_
 _symmetry_equiv_pos_site_id
 _symmetry_equiv_pos_as_xyz
  1  'x, y, z'
loop_
 _atom_site_type_symbol
 _atom_site_label
 _atom_site_symmetry_multiplicity
 _atom_site_fract_x
 _atom_site_fract_y
 _atom_site_fract_z
 _atom_site_occupancy
  Yb  Yb0  1  0.16917795  0.33835590  0.25000000  1
  Yb  Yb1  1  0.66164410  0.83082205  0.25000000  1
  Yb  Yb2  1  0.16917795  0.83082205  0.25000000  1
  Yb  Yb3  1  0.83082205  0.66164410  0.75000000  1
  Yb  Yb4  1  0.33835590  0.16917795  0.75000000  1
  Yb  Yb5  1  0.83082205  0.16917795  0.75000000  1
  H  H6  1  0.33333300  0.66666700  0.75000000  1
  H  H7  1  0.66666700  0.33333300  0.25000000  1
