# generated using pymatgen
data_LaSnPt
_symmetry_space_group_name_H-M   'P 1'
_cell_length_a   7.68742343
_cell_length_b   7.68742448
_cell_length_c   4.20614462
_cell_angle_alpha   90.00000000
_cell_angle_beta   90.00000000
_cell_angle_gamma   119.99999552
_symmetry_Int_Tables_number   1
_chemical_formula_structural   LaSnPt
_chemical_formula_sum   'La3 Sn3 Pt3'
_cell_volume   215.26653369
_cell_formula_units_Z   3
loop_
 _symmetry_equiv_pos_site_id
 _symmetry_equiv_pos_as_xyz
  1  'x, y, z'
loop_
 _atom_site_type_symbol
 _atom_site_label
 _atom_site_symmetry_multiplicity
 _atom_site_fract_x
 _atom_site_fract_y
 _atom_site_fract_z
 _atom_site_occupancy
  La  La0  1  0.41420372  0.41420372  -0.00000000  1
  La  La1  1  0.58579628  -0.00000000  0.00000000  1
  La  La2  1  -0.00000000  0.58579628  0.00000000  1
  Sn  Sn3  1  -0.00000000  0.24826874  0.50000000  1
  Sn  Sn4  1  0.75173126  0.75173126  0.50000000  1
  Sn  Sn5  1  0.24826874  0.00000000  0.50000000  1
  Pt  Pt6  1  0.33333300  0.66666700  0.50000000  1
  Pt  Pt7  1  0.00000000  -0.00000000  -0.00000000  1
  Pt  Pt8  1  0.66666700  0.33333300  0.50000000  1
