# generated using pymatgen
data_HfBi2
_symmetry_space_group_name_H-M   'P 1'
_cell_length_a   4.02520905
_cell_length_b   10.23329234
_cell_length_c   15.63413985
_cell_angle_alpha   90.00000000
_cell_angle_beta   90.00000000
_cell_angle_gamma   90.00000000
_symmetry_Int_Tables_number   1
_chemical_formula_structural   HfBi2
_chemical_formula_sum   'Hf8 Bi16'
_cell_volume   643.98805801
_cell_formula_units_Z   8
loop_
 _symmetry_equiv_pos_site_id
 _symmetry_equiv_pos_as_xyz
  1  'x, y, z'
loop_
 _atom_site_type_symbol
 _atom_site_label
 _atom_site_symmetry_multiplicity
 _atom_site_fract_x
 _atom_site_fract_y
 _atom_site_fract_z
 _atom_site_occupancy
  Hf  Hf0  1  -0.00000000  0.83885610  0.49476232  1
  Hf  Hf1  1  -0.00000000  0.16114142  0.50519912  1
  Hf  Hf2  1  0.50000000  0.66114142  0.99480088  1
  Hf  Hf3  1  0.50000000  0.33885610  0.00523768  1
  Hf  Hf4  1  0.50000000  0.52226388  0.25386597  1
  Hf  Hf5  1  0.50000000  0.47774477  0.74612949  1
  Hf  Hf6  1  0.00000000  0.97774477  0.75387051  1
  Hf  Hf7  1  0.00000000  0.02226388  0.24613403  1
  Bi  Bi8  1  0.50000000  0.62500541  0.44346977  1
  Bi  Bi9  1  0.50000000  0.37498979  0.55651475  1
  Bi  Bi10  1  -0.00000000  0.87498979  0.94348525  1
  Bi  Bi11  1  -0.00000000  0.12500541  0.05653023  1
  Bi  Bi12  1  0.50000000  0.84597682  0.15028082  1
  Bi  Bi13  1  0.50000000  0.15401858  0.84972341  1
  Bi  Bi14  1  -0.00000000  0.65401858  0.65027659  1
  Bi  Bi15  1  -0.00000000  0.34597682  0.34971918  1
  Bi  Bi16  1  -0.00000000  0.73515621  0.30030017  1
  Bi  Bi17  1  0.00000000  0.26484540  0.69968957  1
  Bi  Bi18  1  0.50000000  0.76484540  0.80031043  1
  Bi  Bi19  1  0.50000000  0.23515621  0.19969983  1
  Bi  Bi20  1  -0.00000000  0.51406040  0.10720322  1
  Bi  Bi21  1  -0.00000000  0.48594022  0.89281452  1
  Bi  Bi22  1  0.50000000  0.98594022  0.60718548  1
  Bi  Bi23  1  0.50000000  0.01406040  0.39279678  1
