# generated using pymatgen
data_Ca2CdPd2
_symmetry_space_group_name_H-M   'P 1'
_cell_length_a   5.68140868
_cell_length_b   5.68140868
_cell_length_c   5.68140868
_cell_angle_alpha   133.60638686
_cell_angle_beta   117.38355510
_cell_angle_gamma   81.39363340
_symmetry_Int_Tables_number   1
_chemical_formula_structural   Ca2CdPd2
_chemical_formula_sum   'Ca2 Cd1 Pd2'
_cell_volume   113.83471556
_cell_formula_units_Z   1
loop_
 _symmetry_equiv_pos_site_id
 _symmetry_equiv_pos_as_xyz
  1  'x, y, z'
loop_
 _atom_site_type_symbol
 _atom_site_label
 _atom_site_symmetry_multiplicity
 _atom_site_fract_x
 _atom_site_fract_y
 _atom_site_fract_z
 _atom_site_occupancy
  Ca  Ca0  1  0.70146416  0.20146416  0.50000000  1
  Ca  Ca1  1  0.29853584  0.79853584  0.50000000  1
  Cd  Cd2  1  0.00000000  -0.00000000  0.00000000  1
  Pd  Pd3  1  0.72973382  0.50000000  0.22973382  1
  Pd  Pd4  1  0.27026618  0.50000000  0.77026618  1
