# generated using pymatgen
data_Ba2CoO4
_symmetry_space_group_name_H-M   'P 1'
_cell_length_a   5.88745294
_cell_length_b   7.67998756
_cell_length_c   10.50778733
_cell_angle_alpha   90.00000000
_cell_angle_beta   90.00000000
_cell_angle_gamma   90.00000000
_symmetry_Int_Tables_number   1
_chemical_formula_structural   Ba2CoO4
_chemical_formula_sum   'Ba8 Co4 O16'
_cell_volume   475.11554459
_cell_formula_units_Z   4
loop_
 _symmetry_equiv_pos_site_id
 _symmetry_equiv_pos_as_xyz
  1  'x, y, z'
loop_
 _atom_site_type_symbol
 _atom_site_label
 _atom_site_symmetry_multiplicity
 _atom_site_fract_x
 _atom_site_fract_y
 _atom_site_fract_z
 _atom_site_occupancy
  Ba  Ba0  1  0.25000000  0.85246912  0.42086063  1
  Ba  Ba1  1  0.75000000  0.14753088  0.57913937  1
  Ba  Ba2  1  0.25000000  0.35246912  0.07913937  1
  Ba  Ba3  1  0.75000000  0.64753088  0.92086063  1
  Ba  Ba4  1  0.25000000  0.01107034  0.81129986  1
  Ba  Ba5  1  0.75000000  0.98892966  0.18870014  1
  Ba  Ba6  1  0.25000000  0.51107034  0.68870014  1
  Ba  Ba7  1  0.75000000  0.48892966  0.31129986  1
  Co  Co8  1  0.25000000  0.27497272  0.42204873  1
  Co  Co9  1  0.75000000  0.72502728  0.57795127  1
  Co  Co10  1  0.25000000  0.77497272  0.07795127  1
  Co  Co11  1  0.75000000  0.22502728  0.92204873  1
  O  O12  1  0.49774711  0.68373477  0.14939575  1
  O  O13  1  -0.00225289  0.31626523  0.85060425  1
  O  O14  1  0.00225289  0.18373477  0.35060425  1
  O  O15  1  0.50225289  0.81626523  0.64939575  1
  O  O16  1  0.50225289  0.31626523  0.85060425  1
  O  O17  1  0.00225289  0.68373477  0.14939575  1
  O  O18  1  -0.00225289  0.81626523  0.64939575  1
  O  O19  1  0.49774711  0.18373477  0.35060425  1
  O  O20  1  0.25000000  0.18947962  0.58276847  1
  O  O21  1  0.75000000  0.81052038  0.41723153  1
  O  O22  1  0.25000000  0.68947962  0.91723153  1
  O  O23  1  0.75000000  0.31052038  0.08276847  1
  O  O24  1  0.75000000  0.99336886  0.91540639  1
  O  O25  1  0.25000000  0.00663114  0.08459361  1
  O  O26  1  0.75000000  0.49336886  0.58459361  1
  O  O27  1  0.25000000  0.50663114  0.41540639  1
