# generated using pymatgen
data_BO2F3
_symmetry_space_group_name_H-M   'P 1'
_cell_length_a   7.44023026
_cell_length_b   5.88964024
_cell_length_c   7.80658563
_cell_angle_alpha   82.34150683
_cell_angle_beta   90.00000000
_cell_angle_gamma   90.00000000
_symmetry_Int_Tables_number   1
_chemical_formula_structural   BO2F3
_chemical_formula_sum   'B4 O8 F12'
_cell_volume   339.03535215
_cell_formula_units_Z   4
loop_
 _symmetry_equiv_pos_site_id
 _symmetry_equiv_pos_as_xyz
  1  'x, y, z'
loop_
 _atom_site_type_symbol
 _atom_site_label
 _atom_site_symmetry_multiplicity
 _atom_site_fract_x
 _atom_site_fract_y
 _atom_site_fract_z
 _atom_site_occupancy
  B  B0  1  0.34915240  0.31068392  0.91064814  1
  B  B1  1  0.84915240  0.68931608  0.58935186  1
  B  B2  1  0.65084760  0.68931608  0.08935186  1
  B  B3  1  0.15084760  0.31068392  0.41064814  1
  O  O4  1  0.18292039  0.90635936  0.98819097  1
  O  O5  1  0.68292039  0.09364064  0.51180903  1
  O  O6  1  0.81707961  0.09364064  0.01180903  1
  O  O7  1  0.31707961  0.90635936  0.48819097  1
  O  O8  1  0.17831139  0.79374641  0.13120171  1
  O  O9  1  0.67831139  0.20625359  0.36879829  1
  O  O10  1  0.82168861  0.20625359  0.86879829  1
  O  O11  1  0.32168861  0.79374641  0.63120171  1
  F  F12  1  0.41609741  0.23606105  0.77228066  1
  F  F13  1  0.91609741  0.76393895  0.72771934  1
  F  F14  1  0.58390259  0.76393895  0.22771934  1
  F  F15  1  0.08390259  0.23606105  0.27228066  1
  F  F16  1  0.43919776  0.27657081  0.05838636  1
  F  F17  1  0.93919776  0.72342919  0.44161364  1
  F  F18  1  0.56080224  0.72342919  0.94161364  1
  F  F19  1  0.06080224  0.27657081  0.55838636  1
  F  F20  1  0.19552113  0.42224495  0.90255675  1
  F  F21  1  0.69552113  0.57775505  0.59744325  1
  F  F22  1  0.80447887  0.57775505  0.09744325  1
  F  F23  1  0.30447887  0.42224495  0.40255675  1
