# generated using pymatgen
data_TaTiNi6
_symmetry_space_group_name_H-M   'P 1'
_cell_length_a   5.07880479
_cell_length_b   5.07880479
_cell_length_c   4.19654118
_cell_angle_alpha   90.00000000
_cell_angle_beta   90.00000000
_cell_angle_gamma   119.99999678
_symmetry_Int_Tables_number   1
_chemical_formula_structural   TaTiNi6
_chemical_formula_sum   'Ta1 Ti1 Ni6'
_cell_volume   93.74436604
_cell_formula_units_Z   1
loop_
 _symmetry_equiv_pos_site_id
 _symmetry_equiv_pos_as_xyz
  1  'x, y, z'
loop_
 _atom_site_type_symbol
 _atom_site_label
 _atom_site_symmetry_multiplicity
 _atom_site_fract_x
 _atom_site_fract_y
 _atom_site_fract_z
 _atom_site_occupancy
  Ta  Ta0  1  0.66666700  0.33333300  0.50000000  1
  Ti  Ti1  1  0.33333300  0.66666700  0.00000000  1
  Ni  Ni2  1  0.67389903  0.83694951  0.50000000  1
  Ni  Ni3  1  0.16305049  0.83694951  0.50000000  1
  Ni  Ni4  1  0.16305049  0.32610097  0.50000000  1
  Ni  Ni5  1  0.32272191  0.16136096  -0.00000000  1
  Ni  Ni6  1  0.83863904  0.16136096  -0.00000000  1
  Ni  Ni7  1  0.83863904  0.67727809  -0.00000000  1
