# generated using pymatgen
data_LuInPd
_symmetry_space_group_name_H-M   'P 1'
_cell_length_a   7.62258804
_cell_length_b   7.62258804
_cell_length_c   3.70943057
_cell_angle_alpha   90.00000000
_cell_angle_beta   90.00000000
_cell_angle_gamma   119.99999741
_symmetry_Int_Tables_number   1
_chemical_formula_structural   LuInPd
_chemical_formula_sum   'Lu3 In3 Pd3'
_cell_volume   186.65635819
_cell_formula_units_Z   3
loop_
 _symmetry_equiv_pos_site_id
 _symmetry_equiv_pos_as_xyz
  1  'x, y, z'
loop_
 _atom_site_type_symbol
 _atom_site_label
 _atom_site_symmetry_multiplicity
 _atom_site_fract_x
 _atom_site_fract_y
 _atom_site_fract_z
 _atom_site_occupancy
  Lu  Lu0  1  1.00000000  0.40600151  0.50000000  1
  Lu  Lu1  1  0.59399849  0.59399849  0.50000000  1
  Lu  Lu2  1  0.40600151  1.00000000  0.50000000  1
  In  In3  1  1.00000000  0.73631896  0.00000000  1
  In  In4  1  0.26368104  0.26368104  -0.00000000  1
  In  In5  1  0.73631896  1.00000000  0.00000000  1
  Pd  Pd6  1  0.33333300  0.66666700  -0.00000000  1
  Pd  Pd7  1  0.66666700  0.33333300  0.00000000  1
  Pd  Pd8  1  -0.00000000  0.00000000  0.50000000  1
