# generated using pymatgen
data_HgPt2Se3
_symmetry_space_group_name_H-M   'P 1'
_cell_length_a   7.42359928
_cell_length_b   7.42359928
_cell_length_c   5.44465702
_cell_angle_alpha   90.00000000
_cell_angle_beta   90.00000000
_cell_angle_gamma   120.00001014
_symmetry_Int_Tables_number   1
_chemical_formula_structural   HgPt2Se3
_chemical_formula_sum   'Hg2 Pt4 Se6'
_cell_volume   259.85444852
_cell_formula_units_Z   2
loop_
 _symmetry_equiv_pos_site_id
 _symmetry_equiv_pos_as_xyz
  1  'x, y, z'
loop_
 _atom_site_type_symbol
 _atom_site_label
 _atom_site_symmetry_multiplicity
 _atom_site_fract_x
 _atom_site_fract_y
 _atom_site_fract_z
 _atom_site_occupancy
  Hg  Hg0  1  0.33333300  0.66666700  0.65331746  1
  Hg  Hg1  1  0.66666700  0.33333300  0.34668254  1
  Pt  Pt2  1  -0.00000000  -0.00000000  0.00000000  1
  Pt  Pt3  1  0.50000000  0.50000000  0.00000000  1
  Pt  Pt4  1  -0.00000000  0.50000000  0.00000000  1
  Pt  Pt5  1  0.50000000  -0.00000000  0.00000000  1
  Se  Se6  1  0.82789106  0.65578111  0.76524993  1
  Se  Se7  1  0.82789106  0.17210894  0.76524993  1
  Se  Se8  1  0.34421889  0.17210894  0.76524993  1
  Se  Se9  1  0.17210894  0.34421889  0.23475007  1
  Se  Se10  1  0.17210894  0.82789106  0.23475007  1
  Se  Se11  1  0.65578111  0.82789106  0.23475007  1
