# generated using pymatgen
data_CeAlPd2
_symmetry_space_group_name_H-M   'P 1'
_cell_length_a   5.91858222
_cell_length_b   6.96376348
_cell_length_c   7.55958462
_cell_angle_alpha   90.00807043
_cell_angle_beta   89.99778054
_cell_angle_gamma   89.99670821
_symmetry_Int_Tables_number   1
_chemical_formula_structural   CeAlPd2
_chemical_formula_sum   'Ce4 Al4 Pd8'
_cell_volume   311.57286321
_cell_formula_units_Z   4
loop_
 _symmetry_equiv_pos_site_id
 _symmetry_equiv_pos_as_xyz
  1  'x, y, z'
loop_
 _atom_site_type_symbol
 _atom_site_label
 _atom_site_symmetry_multiplicity
 _atom_site_fract_x
 _atom_site_fract_y
 _atom_site_fract_z
 _atom_site_occupancy
  Ce  Ce0  1  0.34206049  0.75006721  0.03454535  1
  Ce  Ce1  1  0.15788353  0.75005457  0.53459516  1
  Ce  Ce2  1  0.65789456  0.25004632  0.96539583  1
  Ce  Ce3  1  0.84211819  0.24994821  0.46547815  1
  Al  Al4  1  0.65857397  0.74996112  0.38069717  1
  Al  Al5  1  0.84138095  0.74995088  0.88077543  1
  Al  Al6  1  0.34143946  0.25000278  0.61924134  1
  Al  Al7  1  0.15858727  0.24999346  0.11929771  1
  Pd  Pd8  1  0.91422543  0.55155827  0.17624415  1
  Pd  Pd9  1  0.58585969  0.94847071  0.67622986  1
  Pd  Pd10  1  0.08577966  0.05152705  0.82379242  1
  Pd  Pd11  1  0.41418488  0.44844334  0.32370368  1
  Pd  Pd12  1  0.08587573  0.44847372  0.82383767  1
  Pd  Pd13  1  0.41415469  0.05148880  0.32371773  1
  Pd  Pd14  1  0.91422519  0.94843872  0.17622261  1
  Pd  Pd15  1  0.58575532  0.55157482  0.67622676  1
