# generated using pymatgen
data_SmRe2
_symmetry_space_group_name_H-M   'P 1'
_cell_length_a   5.45314126
_cell_length_b   5.45314126
_cell_length_c   8.92563007
_cell_angle_alpha   90.00000000
_cell_angle_beta   90.00000000
_cell_angle_gamma   119.99981490
_symmetry_Int_Tables_number   1
_chemical_formula_structural   SmRe2
_chemical_formula_sum   'Sm4 Re8'
_cell_volume   229.86022174
_cell_formula_units_Z   4
loop_
 _symmetry_equiv_pos_site_id
 _symmetry_equiv_pos_as_xyz
  1  'x, y, z'
loop_
 _atom_site_type_symbol
 _atom_site_label
 _atom_site_symmetry_multiplicity
 _atom_site_fract_x
 _atom_site_fract_y
 _atom_site_fract_z
 _atom_site_occupancy
  Sm  Sm0  1  0.66666361  0.33333639  0.56228186  1
  Sm  Sm1  1  0.33333639  0.66666361  0.43771814  1
  Sm  Sm2  1  0.33333639  0.66666361  0.06228186  1
  Sm  Sm3  1  0.66666361  0.33333639  0.93771814  1
  Re  Re4  1  -0.00000000  -0.00000000  0.50000000  1
  Re  Re5  1  -0.00000000  -0.00000000  0.00000000  1
  Re  Re6  1  0.17013435  0.34028261  0.75000000  1
  Re  Re7  1  0.17013074  0.82987026  0.75000000  1
  Re  Re8  1  0.65971739  0.82986565  0.75000000  1
  Re  Re9  1  0.82986565  0.65971739  0.25000000  1
  Re  Re10  1  0.82986926  0.17012974  0.25000000  1
  Re  Re11  1  0.34028261  0.17013435  0.25000000  1
