# generated using pymatgen
data_Np2Se5
_symmetry_space_group_name_H-M   'P 1'
_cell_length_a   7.78089474
_cell_length_b   7.79515108
_cell_length_c   10.76290353
_cell_angle_alpha   90.00000000
_cell_angle_beta   90.00000000
_cell_angle_gamma   90.00000000
_symmetry_Int_Tables_number   1
_chemical_formula_structural   Np2Se5
_chemical_formula_sum   'Np8 Se20'
_cell_volume   652.80507892
_cell_formula_units_Z   4
loop_
 _symmetry_equiv_pos_site_id
 _symmetry_equiv_pos_as_xyz
  1  'x, y, z'
loop_
 _atom_site_type_symbol
 _atom_site_label
 _atom_site_symmetry_multiplicity
 _atom_site_fract_x
 _atom_site_fract_y
 _atom_site_fract_z
 _atom_site_occupancy
  Np  Np0  1  0.74780518  0.49910937  0.15082983  1
  Np  Np1  1  0.75219482  0.99910937  0.34917017  1
  Np  Np2  1  0.24780518  0.50089063  0.34917017  1
  Np  Np3  1  0.25219482  0.00089063  0.15082983  1
  Np  Np4  1  0.25219482  0.50089063  0.84917017  1
  Np  Np5  1  0.24780518  0.00089063  0.65082983  1
  Np  Np6  1  0.75219482  0.49910937  0.65082983  1
  Np  Np7  1  0.74780518  0.99910937  0.84917017  1
  Se  Se8  1  0.62122877  0.12980057  0.60312261  1
  Se  Se9  1  0.87877123  0.62980057  0.89687739  1
  Se  Se10  1  0.12122877  0.87019943  0.89687739  1
  Se  Se11  1  0.37877123  0.37019943  0.60312261  1
  Se  Se12  1  0.37877123  0.87019943  0.39687739  1
  Se  Se13  1  0.12122877  0.37019943  0.10312261  1
  Se  Se14  1  0.87877123  0.12980057  0.10312261  1
  Se  Se15  1  0.62122877  0.62980057  0.39687739  1
  Se  Se16  1  0.12024885  0.62813625  0.60235632  1
  Se  Se17  1  0.37975115  0.12813625  0.89764368  1
  Se  Se18  1  0.62024885  0.37186375  0.89764368  1
  Se  Se19  1  0.87975115  0.87186375  0.60235632  1
  Se  Se20  1  0.87975115  0.37186375  0.39764368  1
  Se  Se21  1  0.62024885  0.87186375  0.10235632  1
  Se  Se22  1  0.37975115  0.62813625  0.10235632  1
  Se  Se23  1  0.12024885  0.12813625  0.39764368  1
  Se  Se24  1  -0.00000000  0.25000000  0.74663098  1
  Se  Se25  1  0.50000000  0.75000000  0.75336902  1
  Se  Se26  1  -0.00000000  0.75000000  0.25336902  1
  Se  Se27  1  0.50000000  0.25000000  0.24663098  1
