# generated using pymatgen
data_Lu4Ge6Rh7
_symmetry_space_group_name_H-M   'P 1'
_cell_length_a   7.14216823
_cell_length_b   7.14216901
_cell_length_c   7.14216822
_cell_angle_alpha   109.47122701
_cell_angle_beta   109.47122927
_cell_angle_gamma   109.47121391
_symmetry_Int_Tables_number   1
_chemical_formula_structural   Lu4Ge6Rh7
_chemical_formula_sum   'Lu4 Ge6 Rh7'
_cell_volume   280.45832678
_cell_formula_units_Z   1
loop_
 _symmetry_equiv_pos_site_id
 _symmetry_equiv_pos_as_xyz
  1  'x, y, z'
loop_
 _atom_site_type_symbol
 _atom_site_label
 _atom_site_symmetry_multiplicity
 _atom_site_fract_x
 _atom_site_fract_y
 _atom_site_fract_z
 _atom_site_occupancy
  Lu  Lu0  1  -0.00000000  -0.00000000  0.50000000  1
  Lu  Lu1  1  -0.00000000  0.50000000  -0.00000000  1
  Lu  Lu2  1  0.50000000  -0.00000000  -0.00000000  1
  Lu  Lu3  1  0.50000000  0.50000000  0.50000000  1
  Ge  Ge4  1  0.00000000  0.68149086  0.68149086  1
  Ge  Ge5  1  0.31850914  0.31850914  -0.00000000  1
  Ge  Ge6  1  0.68149086  0.68149086  0.00000000  1
  Ge  Ge7  1  0.68149086  0.00000000  0.68149086  1
  Ge  Ge8  1  0.31850914  -0.00000000  0.31850914  1
  Ge  Ge9  1  -0.00000000  0.31850914  0.31850914  1
  Rh  Rh10  1  0.50000000  0.75000000  0.25000000  1
  Rh  Rh11  1  0.25000000  0.50000000  0.75000000  1
  Rh  Rh12  1  0.75000000  0.25000000  0.50000000  1
  Rh  Rh13  1  0.25000000  0.75000000  0.50000000  1
  Rh  Rh14  1  0.50000000  0.25000000  0.75000000  1
  Rh  Rh15  1  0.75000000  0.50000000  0.25000000  1
  Rh  Rh16  1  -0.00000000  -0.00000000  -0.00000000  1
