# generated using pymatgen
data_Gd(BOs)2
_symmetry_space_group_name_H-M   'P 1'
_cell_length_a   5.59066305
_cell_length_b   5.59066305
_cell_length_c   5.94959779
_cell_angle_alpha   109.60589832
_cell_angle_beta   109.60589832
_cell_angle_gamma   106.60767693
_symmetry_Int_Tables_number   1
_chemical_formula_structural   Gd(BOs)2
_chemical_formula_sum   'Gd2 B4 Os4'
_cell_volume   147.45419685
_cell_formula_units_Z   2
loop_
 _symmetry_equiv_pos_site_id
 _symmetry_equiv_pos_as_xyz
  1  'x, y, z'
loop_
 _atom_site_type_symbol
 _atom_site_label
 _atom_site_symmetry_multiplicity
 _atom_site_fract_x
 _atom_site_fract_y
 _atom_site_fract_z
 _atom_site_occupancy
  Gd  Gd0  1  -0.00000000  0.00000000  -0.00000000  1
  Gd  Gd1  1  0.25000000  0.75000000  0.50000000  1
  B  B2  1  0.68909838  0.31090162  -0.00000000  1
  B  B3  1  0.31090162  0.68909838  -0.00000000  1
  B  B4  1  0.93910929  0.06089071  0.50000000  1
  B  B5  1  0.56089071  0.43910929  0.50000000  1
  Os  Os6  1  0.36160395  0.36160395  0.72320989  1
  Os  Os7  1  0.63839605  0.63839605  0.27679011  1
  Os  Os8  1  0.88839388  0.38839388  0.77678975  1
  Os  Os9  1  0.61160612  0.11160612  0.22321025  1
