# generated using pymatgen
data_ZrCl3
_symmetry_space_group_name_H-M   'P 1'
_cell_length_a   6.20825611
_cell_length_b   6.21316188
_cell_length_c   7.22829900
_cell_angle_alpha   90.25570080
_cell_angle_beta   115.26729205
_cell_angle_gamma   117.84075213
_symmetry_Int_Tables_number   1
_chemical_formula_structural   ZrCl3
_chemical_formula_sum   'Zr2 Cl6'
_cell_volume   215.59262412
_cell_formula_units_Z   2
loop_
 _symmetry_equiv_pos_site_id
 _symmetry_equiv_pos_as_xyz
  1  'x, y, z'
loop_
 _atom_site_type_symbol
 _atom_site_label
 _atom_site_symmetry_multiplicity
 _atom_site_fract_x
 _atom_site_fract_y
 _atom_site_fract_z
 _atom_site_occupancy
  Zr  Zr0  1  0.85743120  0.14298094  0.00004722  1
  Zr  Zr1  1  0.14256880  0.85701906  -0.00004722  1
  Cl  Cl2  1  0.34790981  0.07469993  0.77592360  1
  Cl  Cl3  1  0.66675470  0.75647027  0.73427375  1
  Cl  Cl4  1  0.00019486  0.42332307  0.77623875  1
  Cl  Cl5  1  0.99980514  0.57667693  0.22376125  1
  Cl  Cl6  1  0.33324530  0.24352973  0.26572625  1
  Cl  Cl7  1  0.65209019  0.92530007  0.22407640  1
