# generated using pymatgen
data_NaCaAlF6
_symmetry_space_group_name_H-M   'P 1'
_cell_length_a   8.87635163
_cell_length_b   8.87635137
_cell_length_c   5.03968594
_cell_angle_alpha   90.00000000
_cell_angle_beta   90.00000000
_cell_angle_gamma   120.00000101
_symmetry_Int_Tables_number   1
_chemical_formula_structural   NaCaAlF6
_chemical_formula_sum   'Na3 Ca3 Al3 F18'
_cell_volume   343.87696414
_cell_formula_units_Z   3
loop_
 _symmetry_equiv_pos_site_id
 _symmetry_equiv_pos_as_xyz
  1  'x, y, z'
loop_
 _atom_site_type_symbol
 _atom_site_label
 _atom_site_symmetry_multiplicity
 _atom_site_fract_x
 _atom_site_fract_y
 _atom_site_fract_z
 _atom_site_occupancy
  Na  Na0  1  -0.00000000  0.71214011  0.50000000  1
  Na  Na1  1  0.71214011  0.00000000  0.50000000  1
  Na  Na2  1  0.28785989  0.28785989  0.50000000  1
  Ca  Ca3  1  0.62812972  0.62812972  -0.00000000  1
  Ca  Ca4  1  -0.00000000  0.37187028  -0.00000000  1
  Ca  Ca5  1  0.37187028  0.00000000  -0.00000000  1
  Al  Al6  1  0.66666700  0.33333300  0.50126769  1
  Al  Al7  1  0.33333300  0.66666700  0.49873231  1
  Al  Al8  1  0.00000000  0.00000000  -0.00000000  1
  F  F9  1  0.77539804  0.25061494  0.29414840  1
  F  F10  1  0.74938506  0.52478410  0.29414840  1
  F  F11  1  0.47521690  0.22460196  0.29414840  1
  F  F12  1  0.52478410  0.74938506  0.70585160  1
  F  F13  1  0.22460196  0.47521690  0.70585160  1
  F  F14  1  0.25061494  0.77539804  0.70585160  1
  F  F15  1  0.40874054  0.55165025  0.29075282  1
  F  F16  1  0.44834975  0.85708829  0.29075282  1
  F  F17  1  0.14291171  0.59125946  0.29075282  1
  F  F18  1  0.91413005  0.10824070  0.79864459  1
  F  F19  1  0.89175930  0.80588935  0.79864459  1
  F  F20  1  0.19411065  0.08586995  0.79864459  1
  F  F21  1  0.80588935  0.89175930  0.20135541  1
  F  F22  1  0.08586995  0.19411065  0.20135541  1
  F  F23  1  0.10824070  0.91413005  0.20135541  1
  F  F24  1  0.55165025  0.40874054  0.70924718  1
  F  F25  1  0.59125946  0.14291171  0.70924718  1
  F  F26  1  0.85708829  0.44834975  0.70924718  1
