# generated using pymatgen
data_NdGePt
_symmetry_space_group_name_H-M   'P 1'
_cell_length_a   5.76385512
_cell_length_b   5.76385512
_cell_length_c   7.32217387
_cell_angle_alpha   51.37552102
_cell_angle_beta   51.37552102
_cell_angle_gamma   44.63968870
_symmetry_Int_Tables_number   1
_chemical_formula_structural   NdGePt
_chemical_formula_sum   'Nd2 Ge2 Pt2'
_cell_volume   126.14690876
_cell_formula_units_Z   2
loop_
 _symmetry_equiv_pos_site_id
 _symmetry_equiv_pos_as_xyz
  1  'x, y, z'
loop_
 _atom_site_type_symbol
 _atom_site_label
 _atom_site_symmetry_multiplicity
 _atom_site_fract_x
 _atom_site_fract_y
 _atom_site_fract_z
 _atom_site_occupancy
  Nd  Nd0  1  0.54950564  0.54950564  0.68695118  1
  Nd  Nd1  1  0.45049436  0.45049436  0.31304882  1
  Ge  Ge2  1  0.83885570  0.83885570  0.09081811  1
  Ge  Ge3  1  0.16114430  0.16114430  0.90918189  1
  Pt  Pt4  1  0.17954039  0.17954039  0.27877308  1
  Pt  Pt5  1  0.82045961  0.82045961  0.72122692  1
