# generated using pymatgen
data_CsYbSe2
_symmetry_space_group_name_H-M   'P 1'
_cell_length_a   4.16931261
_cell_length_b   4.16931261
_cell_length_c   16.66540907
_cell_angle_alpha   90.00000000
_cell_angle_beta   90.00000000
_cell_angle_gamma   119.99999917
_symmetry_Int_Tables_number   1
_chemical_formula_structural   CsYbSe2
_chemical_formula_sum   'Cs2 Yb2 Se4'
_cell_volume   250.88548328
_cell_formula_units_Z   2
loop_
 _symmetry_equiv_pos_site_id
 _symmetry_equiv_pos_as_xyz
  1  'x, y, z'
loop_
 _atom_site_type_symbol
 _atom_site_label
 _atom_site_symmetry_multiplicity
 _atom_site_fract_x
 _atom_site_fract_y
 _atom_site_fract_z
 _atom_site_occupancy
  Cs  Cs0  1  0.66666700  0.33333300  0.25000000  1
  Cs  Cs1  1  0.33333300  0.66666700  0.75000000  1
  Yb  Yb2  1  0.00000000  0.00000000  0.00000000  1
  Yb  Yb3  1  0.00000000  0.00000000  0.50000000  1
  Se  Se4  1  0.33333300  0.66666700  0.09113553  1
  Se  Se5  1  0.66666700  0.33333300  0.59113553  1
  Se  Se6  1  0.33333300  0.66666700  0.40886447  1
  Se  Se7  1  0.66666700  0.33333300  0.90886447  1
