# generated using pymatgen
data_PdRhPb4
_symmetry_space_group_name_H-M   'P 1'
_cell_length_a   5.65877824
_cell_length_b   5.65877824
_cell_length_c   5.65877824
_cell_angle_alpha   105.69429182
_cell_angle_beta   105.69429182
_cell_angle_gamma   117.32201321
_symmetry_Int_Tables_number   1
_chemical_formula_structural   PdRhPb4
_chemical_formula_sum   'Pd1 Rh1 Pb4'
_cell_volume   137.50164454
_cell_formula_units_Z   1
loop_
 _symmetry_equiv_pos_site_id
 _symmetry_equiv_pos_as_xyz
  1  'x, y, z'
loop_
 _atom_site_type_symbol
 _atom_site_label
 _atom_site_symmetry_multiplicity
 _atom_site_fract_x
 _atom_site_fract_y
 _atom_site_fract_z
 _atom_site_occupancy
  Pd  Pd0  1  -0.00000000  -0.00000000  -0.00000000  1
  Rh  Rh1  1  0.50000000  0.50000000  -0.00000000  1
  Pb  Pb2  1  0.91367010  0.41367010  0.82734020  1
  Pb  Pb3  1  0.58632990  0.08632990  0.17265980  1
  Pb  Pb4  1  0.08632990  0.91367010  0.50000000  1
  Pb  Pb5  1  0.41367010  0.58632990  0.50000000  1
