# generated using pymatgen
data_Nd3(AgSn)4
_symmetry_space_group_name_H-M   'P 1'
_cell_length_a   4.66878859
_cell_length_b   7.37922729
_cell_length_c   8.92134279
_cell_angle_alpha   114.42939288
_cell_angle_beta   105.16882129
_cell_angle_gamma   90.00000000
_symmetry_Int_Tables_number   1
_chemical_formula_structural   Nd3(AgSn)4
_chemical_formula_sum   'Nd3 Ag4 Sn4'
_cell_volume   268.03544176
_cell_formula_units_Z   1
loop_
 _symmetry_equiv_pos_site_id
 _symmetry_equiv_pos_as_xyz
  1  'x, y, z'
loop_
 _atom_site_type_symbol
 _atom_site_label
 _atom_site_symmetry_multiplicity
 _atom_site_fract_x
 _atom_site_fract_y
 _atom_site_fract_z
 _atom_site_occupancy
  Nd  Nd0  1  -0.00000000  0.50000000  -0.00000000  1
  Nd  Nd1  1  0.86981199  0.86981199  0.73962397  1
  Nd  Nd2  1  0.13018801  0.13018801  0.26037603  1
  Ag  Ag3  1  0.66993611  0.47556927  0.33987122  1
  Ag  Ag4  1  0.66993611  0.86430195  0.33987122  1
  Ag  Ag5  1  0.33006389  0.13569805  0.66012878  1
  Ag  Ag6  1  0.33006389  0.52443073  0.66012878  1
  Sn  Sn7  1  0.78446672  0.28446672  0.56893244  1
  Sn  Sn8  1  0.21553328  0.71553328  0.43106756  1
  Sn  Sn9  1  0.50000000  0.80597949  -0.00000000  1
  Sn  Sn10  1  0.50000000  0.19402051  -0.00000000  1
