# generated using pymatgen
data_YbGdZn2
_symmetry_space_group_name_H-M   'P 1'
_cell_length_a   4.99220865
_cell_length_b   4.99220865
_cell_length_c   4.99725469
_cell_angle_alpha   60.00822466
_cell_angle_beta   60.00822466
_cell_angle_gamma   89.97401446
_symmetry_Int_Tables_number   1
_chemical_formula_structural   YbGdZn2
_chemical_formula_sum   'Yb1 Gd1 Zn2'
_cell_volume   88.10654298
_cell_formula_units_Z   1
loop_
 _symmetry_equiv_pos_site_id
 _symmetry_equiv_pos_as_xyz
  1  'x, y, z'
loop_
 _atom_site_type_symbol
 _atom_site_label
 _atom_site_symmetry_multiplicity
 _atom_site_fract_x
 _atom_site_fract_y
 _atom_site_fract_z
 _atom_site_occupancy
  Yb  Yb0  1  0.50000000  0.50000000  0.50000000  1
  Gd  Gd1  1  0.00000000  0.00000000  0.50000000  1
  Zn  Zn2  1  0.75002585  0.24997415  0.00000000  1
  Zn  Zn3  1  0.24997415  0.75002585  0.00000000  1
