# generated using pymatgen
data_GdSiPd
_symmetry_space_group_name_H-M   'P 1'
_cell_length_a   5.58511477
_cell_length_b   5.58511477
_cell_length_c   7.10216367
_cell_angle_alpha   51.39863141
_cell_angle_beta   51.39863141
_cell_angle_gamma   45.10126917
_symmetry_Int_Tables_number   1
_chemical_formula_structural   GdSiPd
_chemical_formula_sum   'Gd2 Si2 Pd2'
_cell_volume   115.70673224
_cell_formula_units_Z   2
loop_
 _symmetry_equiv_pos_site_id
 _symmetry_equiv_pos_as_xyz
  1  'x, y, z'
loop_
 _atom_site_type_symbol
 _atom_site_label
 _atom_site_symmetry_multiplicity
 _atom_site_fract_x
 _atom_site_fract_y
 _atom_site_fract_z
 _atom_site_occupancy
  Gd  Gd0  1  0.45262575  0.45262575  0.30923844  1
  Gd  Gd1  1  0.54737425  0.54737425  0.69076156  1
  Si  Si2  1  0.15279218  0.15279218  0.89881378  1
  Si  Si3  1  0.84720782  0.84720782  0.10118622  1
  Pd  Pd4  1  0.81475011  0.81475011  0.74698559  1
  Pd  Pd5  1  0.18524989  0.18524989  0.25301441  1
