# generated using pymatgen
data_Ba(MnAs)2
_symmetry_space_group_name_H-M   'P 1'
_cell_length_a   4.26367918
_cell_length_b   4.26367984
_cell_length_c   7.33839699
_cell_angle_alpha   106.88817370
_cell_angle_beta   106.88817745
_cell_angle_gamma   89.99999208
_symmetry_Int_Tables_number   1
_chemical_formula_structural   Ba(MnAs)2
_chemical_formula_sum   'Ba1 Mn2 As2'
_cell_volume   121.62608850
_cell_formula_units_Z   1
loop_
 _symmetry_equiv_pos_site_id
 _symmetry_equiv_pos_as_xyz
  1  'x, y, z'
loop_
 _atom_site_type_symbol
 _atom_site_label
 _atom_site_symmetry_multiplicity
 _atom_site_fract_x
 _atom_site_fract_y
 _atom_site_fract_z
 _atom_site_occupancy
  Ba  Ba0  1  -0.00000000  0.00000000  0.00000000  1
  Mn  Mn1  1  0.25000000  0.75000000  0.50000000  1
  Mn  Mn2  1  0.75000000  0.25000000  0.50000000  1
  As  As3  1  0.63807672  0.63807672  0.27615344  1
  As  As4  1  0.36192328  0.36192328  0.72384656  1
