# generated using pymatgen
data_K3BeF5
_symmetry_space_group_name_H-M   'P 1'
_cell_length_a   7.32329307
_cell_length_b   7.32328949
_cell_length_c   7.32318216
_cell_angle_alpha   122.22832089
_cell_angle_beta   122.22835137
_cell_angle_gamma   86.18166070
_symmetry_Int_Tables_number   1
_chemical_formula_structural   K3BeF5
_chemical_formula_sum   'K6 Be2 F10'
_cell_volume   267.71308666
_cell_formula_units_Z   2
loop_
 _symmetry_equiv_pos_site_id
 _symmetry_equiv_pos_as_xyz
  1  'x, y, z'
loop_
 _atom_site_type_symbol
 _atom_site_label
 _atom_site_symmetry_multiplicity
 _atom_site_fract_x
 _atom_site_fract_y
 _atom_site_fract_z
 _atom_site_occupancy
  K  K0  1  0.17815870  0.67815885  0.85631489  1
  K  K1  1  0.32184505  0.17815101  0.50000010  1
  K  K2  1  0.82184178  0.32184174  0.14368256  1
  K  K3  1  0.67815512  0.82184878  0.50000061  1
  K  K4  1  0.74999922  0.75000162  0.00000005  1
  K  K5  1  0.25000143  0.24999792  -0.00000017  1
  Be  Be6  1  0.75003853  0.25004006  0.50003163  1
  Be  Be7  1  0.24996163  0.74996038  0.49996874  1
  F  F8  1  0.71037938  0.46134072  0.50000805  1
  F  F9  1  0.03866092  0.78962088  0.49999305  1
  F  F10  1  0.46130727  0.96130693  0.75093121  1
  F  F11  1  0.21036614  0.71036642  0.24904260  1
  F  F12  1  0.49999999  0.50000007  0.00000022  1
  F  F13  1  0.00000014  -0.00000027  0.00000025  1
  F  F14  1  0.78963355  0.28963329  0.75095667  1
  F  F15  1  0.53869196  0.03869233  0.24906852  1
  F  F16  1  0.28962085  0.53866017  0.49999273  1
  F  F17  1  0.96133931  0.21037910  0.50000730  1
