# generated using pymatgen
data_LaPS
_symmetry_space_group_name_H-M   'P 1'
_cell_length_a   5.63159309
_cell_length_b   5.73347878
_cell_length_c   17.32981077
_cell_angle_alpha   90.00000000
_cell_angle_beta   90.00000000
_cell_angle_gamma   90.00000000
_symmetry_Int_Tables_number   1
_chemical_formula_structural   LaPS
_chemical_formula_sum   'La8 P8 S8'
_cell_volume   559.55566560
_cell_formula_units_Z   8
loop_
 _symmetry_equiv_pos_site_id
 _symmetry_equiv_pos_as_xyz
  1  'x, y, z'
loop_
 _atom_site_type_symbol
 _atom_site_label
 _atom_site_symmetry_multiplicity
 _atom_site_fract_x
 _atom_site_fract_y
 _atom_site_fract_z
 _atom_site_occupancy
  La  La0  1  0.25000000  0.48369656  0.36243878  1
  La  La1  1  0.25000000  0.98369656  0.13756122  1
  La  La2  1  0.75000000  0.51630344  0.63756122  1
  La  La3  1  0.75000000  0.01630344  0.86243878  1
  La  La4  1  0.25000000  0.01727196  0.64968786  1
  La  La5  1  0.25000000  0.51727196  0.85031214  1
  La  La6  1  0.75000000  0.98272804  0.35031214  1
  La  La7  1  0.75000000  0.48272804  0.14968786  1
  P  P8  1  0.05023569  0.31272332  0.99686608  1
  P  P9  1  0.44976431  0.81272332  0.50313392  1
  P  P10  1  0.55023569  0.68727668  0.00313392  1
  P  P11  1  0.94976431  0.18727668  0.49686608  1
  P  P12  1  0.94976431  0.68727668  0.00313392  1
  P  P13  1  0.55023569  0.18727668  0.49686608  1
  P  P14  1  0.44976431  0.31272332  0.99686608  1
  P  P15  1  0.05023569  0.81272332  0.50313392  1
  S  S16  1  0.25000000  0.48558764  0.18896020  1
  S  S17  1  0.25000000  0.98558764  0.31103980  1
  S  S18  1  0.75000000  0.51441236  0.81103980  1
  S  S19  1  0.75000000  0.01441236  0.68896020  1
  S  S20  1  0.25000000  0.01256633  0.81978264  1
  S  S21  1  0.25000000  0.51256633  0.68021736  1
  S  S22  1  0.75000000  0.98743367  0.18021736  1
  S  S23  1  0.75000000  0.48743367  0.31978264  1
