# generated using pymatgen
data_Ti4C3N
_symmetry_space_group_name_H-M   'P 1'
_cell_length_a   10.10606240
_cell_length_b   10.10606240
_cell_length_c   10.10606284
_cell_angle_alpha   17.34007594
_cell_angle_beta   17.34007594
_cell_angle_gamma   17.34007798
_symmetry_Int_Tables_number   1
_chemical_formula_structural   Ti4C3N
_chemical_formula_sum   'Ti4 C3 N1'
_cell_volume   80.00830387
_cell_formula_units_Z   1
loop_
 _symmetry_equiv_pos_site_id
 _symmetry_equiv_pos_as_xyz
  1  'x, y, z'
loop_
 _atom_site_type_symbol
 _atom_site_label
 _atom_site_symmetry_multiplicity
 _atom_site_fract_x
 _atom_site_fract_y
 _atom_site_fract_z
 _atom_site_occupancy
  Ti  Ti0  1  0.87459126  0.87459126  0.87459126  1
  Ti  Ti1  1  0.12540874  0.12540874  0.12540874  1
  Ti  Ti2  1  0.37589046  0.37589046  0.37589046  1
  Ti  Ti3  1  0.62410954  0.62410954  0.62410954  1
  C  C4  1  0.25125095  0.25125095  0.25125095  1
  C  C5  1  0.50000000  0.50000000  0.50000000  1
  C  C6  1  0.74874905  0.74874905  0.74874905  1
  N  N7  1  0.00000000  0.00000000  0.00000000  1
