# generated using pymatgen
data_Bi2TeSe2
_symmetry_space_group_name_H-M   'P 1'
_cell_length_a   10.53533465
_cell_length_b   10.53533465
_cell_length_c   10.53533517
_cell_angle_alpha   23.23761461
_cell_angle_beta   23.23761461
_cell_angle_gamma   23.23761184
_symmetry_Int_Tables_number   1
_chemical_formula_structural   Bi2TeSe2
_chemical_formula_sum   'Bi2 Te1 Se2'
_cell_volume   159.80077151
_cell_formula_units_Z   1
loop_
 _symmetry_equiv_pos_site_id
 _symmetry_equiv_pos_as_xyz
  1  'x, y, z'
loop_
 _atom_site_type_symbol
 _atom_site_label
 _atom_site_symmetry_multiplicity
 _atom_site_fract_x
 _atom_site_fract_y
 _atom_site_fract_z
 _atom_site_occupancy
  Bi  Bi0  1  0.39348756  0.39348756  0.39348756  1
  Bi  Bi1  1  0.60320906  0.60320906  0.60320906  1
  Te  Te2  1  0.78504078  0.78504078  0.78504078  1
  Se  Se3  1  0.99757442  0.99757442  0.99757442  1
  Se  Se4  1  0.22068817  0.22068817  0.22068817  1
