# generated using pymatgen
data_LaSnPd
_symmetry_space_group_name_H-M   'P 1'
_cell_length_a   4.73384642
_cell_length_b   7.67586498
_cell_length_c   7.96279816
_cell_angle_alpha   90.00000000
_cell_angle_beta   90.00000000
_cell_angle_gamma   90.00000000
_symmetry_Int_Tables_number   1
_chemical_formula_structural   LaSnPd
_chemical_formula_sum   'La4 Sn4 Pd4'
_cell_volume   289.33914798
_cell_formula_units_Z   4
loop_
 _symmetry_equiv_pos_site_id
 _symmetry_equiv_pos_as_xyz
  1  'x, y, z'
loop_
 _atom_site_type_symbol
 _atom_site_label
 _atom_site_symmetry_multiplicity
 _atom_site_fract_x
 _atom_site_fract_y
 _atom_site_fract_z
 _atom_site_occupancy
  La  La0  1  0.75000000  0.48432636  0.20001229  1
  La  La1  1  0.75000000  0.98432636  0.29998771  1
  La  La2  1  0.25000000  0.51567364  0.79998771  1
  La  La3  1  0.25000000  0.01567364  0.70001229  1
  Sn  Sn4  1  0.75000000  0.31623651  0.58603262  1
  Sn  Sn5  1  0.75000000  0.81623651  0.91396738  1
  Sn  Sn6  1  0.25000000  0.68376349  0.41396738  1
  Sn  Sn7  1  0.25000000  0.18376349  0.08603262  1
  Pd  Pd8  1  0.75000000  0.20242990  0.91378791  1
  Pd  Pd9  1  0.75000000  0.70242990  0.58621209  1
  Pd  Pd10  1  0.25000000  0.79757010  0.08621209  1
  Pd  Pd11  1  0.25000000  0.29757010  0.41378791  1
