# generated using pymatgen
data_MnBi4S7
_symmetry_space_group_name_H-M   'P 1'
_cell_length_a   3.97293807
_cell_length_b   6.74945517
_cell_length_c   11.96022878
_cell_angle_alpha   104.04061943
_cell_angle_beta   90.00000000
_cell_angle_gamma   107.11648494
_symmetry_Int_Tables_number   1
_chemical_formula_structural   MnBi4S7
_chemical_formula_sum   'Mn1 Bi4 S7'
_cell_volume   296.47007760
_cell_formula_units_Z   1
loop_
 _symmetry_equiv_pos_site_id
 _symmetry_equiv_pos_as_xyz
  1  'x, y, z'
loop_
 _atom_site_type_symbol
 _atom_site_label
 _atom_site_symmetry_multiplicity
 _atom_site_fract_x
 _atom_site_fract_y
 _atom_site_fract_z
 _atom_site_occupancy
  Mn  Mn0  1  0.00000000  0.00000000  0.50000000  1
  Bi  Bi1  1  0.12008638  0.24017276  0.92504267  1
  Bi  Bi2  1  0.87991362  0.75982724  0.07495733  1
  Bi  Bi3  1  0.31843125  0.63686250  0.66001631  1
  Bi  Bi4  1  0.68156875  0.36313750  0.33998369  1
  S  S5  1  0.96774137  0.93548373  0.69534667  1
  S  S6  1  0.03225863  0.06451627  0.30465433  1
  S  S7  1  0.25666662  0.51333423  0.14093929  1
  S  S8  1  0.74333338  0.48666577  0.85906071  1
  S  S9  1  0.35172251  0.70344502  0.45225535  1
  S  S10  1  0.64827749  0.29655498  0.54774465  1
  S  S11  1  0.50000000  0.00000000  0.00000000  1
