# generated using pymatgen
data_Ca2AgPd2
_symmetry_space_group_name_H-M   'P 1'
_cell_length_a   5.58449848
_cell_length_b   5.58449848
_cell_length_c   5.58449848
_cell_angle_alpha   132.61784561
_cell_angle_beta   117.59160585
_cell_angle_gamma   81.93644862
_symmetry_Int_Tables_number   1
_chemical_formula_structural   Ca2AgPd2
_chemical_formula_sum   'Ca2 Ag1 Pd2'
_cell_volume   109.50201078
_cell_formula_units_Z   1
loop_
 _symmetry_equiv_pos_site_id
 _symmetry_equiv_pos_as_xyz
  1  'x, y, z'
loop_
 _atom_site_type_symbol
 _atom_site_label
 _atom_site_symmetry_multiplicity
 _atom_site_fract_x
 _atom_site_fract_y
 _atom_site_fract_z
 _atom_site_occupancy
  Ca  Ca0  1  0.70220919  0.20220919  0.50000000  1
  Ca  Ca1  1  0.29779081  0.79779081  0.50000000  1
  Ag  Ag2  1  0.00000000  0.00000000  0.00000000  1
  Pd  Pd3  1  0.73119158  0.50000000  0.23119158  1
  Pd  Pd4  1  0.26880842  0.50000000  0.76880842  1
