# generated using pymatgen
data_LaNi5P3
_symmetry_space_group_name_H-M   'P 1'
_cell_length_a   6.08471490
_cell_length_b   6.08471490
_cell_length_c   11.45208870
_cell_angle_alpha   90.00000000
_cell_angle_beta   90.00000000
_cell_angle_gamma   145.44571187
_symmetry_Int_Tables_number   1
_chemical_formula_structural   LaNi5P3
_chemical_formula_sum   'La2 Ni10 P6'
_cell_volume   240.48684418
_cell_formula_units_Z   2
loop_
 _symmetry_equiv_pos_site_id
 _symmetry_equiv_pos_as_xyz
  1  'x, y, z'
loop_
 _atom_site_type_symbol
 _atom_site_label
 _atom_site_symmetry_multiplicity
 _atom_site_fract_x
 _atom_site_fract_y
 _atom_site_fract_z
 _atom_site_occupancy
  La  La0  1  0.33759711  0.66240289  0.25000000  1
  La  La1  1  0.66240289  0.33759711  0.75000000  1
  Ni  Ni2  1  0.05056969  0.94943031  0.14546202  1
  Ni  Ni3  1  0.05056969  0.94943031  0.35453798  1
  Ni  Ni4  1  0.69846388  0.30153612  0.43173217  1
  Ni  Ni5  1  0.30153612  0.69846388  0.56826783  1
  Ni  Ni6  1  0.30153612  0.69846388  0.93173217  1
  Ni  Ni7  1  0.69846388  0.30153612  0.06826783  1
  Ni  Ni8  1  0.50000000  0.50000000  0.50000000  1
  Ni  Ni9  1  0.50000000  0.50000000  0.00000000  1
  Ni  Ni10  1  0.94943031  0.05056969  0.64546202  1
  Ni  Ni11  1  0.94943031  0.05056969  0.85453798  1
  P  P12  1  0.61635247  0.38364753  0.25000000  1
  P  P13  1  0.38364753  0.61635247  0.75000000  1
  P  P14  1  0.11817784  0.88182216  0.53754720  1
  P  P15  1  0.88182216  0.11817784  0.46245280  1
  P  P16  1  0.88182216  0.11817784  0.03754720  1
  P  P17  1  0.11817784  0.88182216  0.96245280  1
