# generated using pymatgen
data_K2SmF5
_symmetry_space_group_name_H-M   'P 1'
_cell_length_a   6.59556948
_cell_length_b   7.40139309
_cell_length_c   10.74288747
_cell_angle_alpha   90.00000000
_cell_angle_beta   90.00000000
_cell_angle_gamma   90.00000000
_symmetry_Int_Tables_number   1
_chemical_formula_structural   K2SmF5
_chemical_formula_sum   'K8 Sm4 F20'
_cell_volume   524.42911739
_cell_formula_units_Z   4
loop_
 _symmetry_equiv_pos_site_id
 _symmetry_equiv_pos_as_xyz
  1  'x, y, z'
loop_
 _atom_site_type_symbol
 _atom_site_label
 _atom_site_symmetry_multiplicity
 _atom_site_fract_x
 _atom_site_fract_y
 _atom_site_fract_z
 _atom_site_occupancy
  K  K0  1  0.53086751  0.99773423  0.82844476  1
  K  K1  1  0.46913249  0.49773423  0.17155524  1
  K  K2  1  0.96913249  0.99773423  0.32844476  1
  K  K3  1  0.03086751  0.49773423  0.67155524  1
  K  K4  1  0.53086751  0.50226577  0.82844476  1
  K  K5  1  0.46913249  0.00226577  0.17155524  1
  K  K6  1  0.96913249  0.50226577  0.32844476  1
  K  K7  1  0.03086751  0.00226577  0.67155524  1
  Sm  Sm8  1  0.56725767  0.25000000  0.50368423  1
  Sm  Sm9  1  0.43274233  0.75000000  0.49631577  1
  Sm  Sm10  1  0.93274233  0.25000000  0.00368423  1
  Sm  Sm11  1  0.06725767  0.75000000  0.99631577  1
  F  F12  1  0.86061984  0.75000000  0.82933797  1
  F  F13  1  0.13938016  0.25000000  0.17066203  1
  F  F14  1  0.63938016  0.75000000  0.32933797  1
  F  F15  1  0.36061984  0.25000000  0.67066203  1
  F  F16  1  0.82975118  0.25000000  0.80106581  1
  F  F17  1  0.17024882  0.75000000  0.19893419  1
  F  F18  1  0.67024882  0.25000000  0.30106581  1
  F  F19  1  0.32975118  0.75000000  0.69893419  1
  F  F20  1  0.64813136  0.96581903  0.58104507  1
  F  F21  1  0.35186864  0.46581903  0.41895493  1
  F  F22  1  0.85186864  0.96581903  0.08104507  1
  F  F23  1  0.14813136  0.46581903  0.91895493  1
  F  F24  1  0.40741113  0.75000000  0.98904658  1
  F  F25  1  0.59258887  0.25000000  0.01095342  1
  F  F26  1  0.09258887  0.75000000  0.48904658  1
  F  F27  1  0.90741113  0.25000000  0.51095342  1
  F  F28  1  0.14813136  0.03418097  0.91895493  1
  F  F29  1  0.85186864  0.53418097  0.08104507  1
  F  F30  1  0.35186864  0.03418097  0.41895493  1
  F  F31  1  0.64813136  0.53418097  0.58104507  1
