# generated using pymatgen
data_RbVSe2
_symmetry_space_group_name_H-M   'P 1'
_cell_length_a   6.02032046
_cell_length_b   7.61540255
_cell_length_c   12.60944515
_cell_angle_alpha   84.58549284
_cell_angle_beta   76.18882821
_cell_angle_gamma   66.71702449
_symmetry_Int_Tables_number   1
_chemical_formula_structural   RbVSe2
_chemical_formula_sum   'Rb4 V4 Se8'
_cell_volume   515.67524934
_cell_formula_units_Z   4
loop_
 _symmetry_equiv_pos_site_id
 _symmetry_equiv_pos_as_xyz
  1  'x, y, z'
loop_
 _atom_site_type_symbol
 _atom_site_label
 _atom_site_symmetry_multiplicity
 _atom_site_fract_x
 _atom_site_fract_y
 _atom_site_fract_z
 _atom_site_occupancy
  Rb  Rb0  1  0.94726495  0.75000000  0.10547209  1
  Rb  Rb1  1  0.30273505  0.75000000  0.39452791  1
  Rb  Rb2  1  0.05273505  0.25000000  0.89452791  1
  Rb  Rb3  1  0.69726495  0.25000000  0.60547209  1
  V  V4  1  0.12500000  0.75000000  0.75000000  1
  V  V5  1  0.87500000  0.25000000  0.25000000  1
  V  V6  1  0.62500000  0.75000000  0.75000000  1
  V  V7  1  0.37500000  0.25000000  0.25000000  1
  Se  Se8  1  0.27464314  0.05318543  0.14398929  1
  Se  Se9  1  0.97181787  0.44681457  0.35601071  1
  Se  Se10  1  0.67217243  0.05318543  0.35601071  1
  Se  Se11  1  0.58136856  0.44681457  0.14398929  1
  Se  Se12  1  0.72535686  0.94681457  0.85601071  1
  Se  Se13  1  0.02818213  0.55318543  0.64398929  1
  Se  Se14  1  0.32782757  0.94681457  0.64398929  1
  Se  Se15  1  0.41863144  0.55318543  0.85601071  1
