# generated using pymatgen
data_Ge9Pd25
_symmetry_space_group_name_H-M   'P 1'
_cell_length_a   7.40906730
_cell_length_b   7.40906663
_cell_length_c   10.66186129
_cell_angle_alpha   90.00000000
_cell_angle_beta   90.00000000
_cell_angle_gamma   119.99999642
_symmetry_Int_Tables_number   1
_chemical_formula_structural   Ge9Pd25
_chemical_formula_sum   'Ge9 Pd25'
_cell_volume   506.86314692
_cell_formula_units_Z   1
loop_
 _symmetry_equiv_pos_site_id
 _symmetry_equiv_pos_as_xyz
  1  'x, y, z'
loop_
 _atom_site_type_symbol
 _atom_site_label
 _atom_site_symmetry_multiplicity
 _atom_site_fract_x
 _atom_site_fract_y
 _atom_site_fract_z
 _atom_site_occupancy
  Ge  Ge0  1  -0.00000000  0.00000000  0.00000000  1
  Ge  Ge1  1  0.66666700  0.33333300  0.02038717  1
  Ge  Ge2  1  0.33333300  0.66666700  0.97961283  1
  Ge  Ge3  1  0.34329316  0.33585001  0.32144559  1
  Ge  Ge4  1  0.99255684  0.65670684  0.32144559  1
  Ge  Ge5  1  0.66414999  0.00744316  0.32144559  1
  Ge  Ge6  1  0.65670684  0.66414999  0.67855441  1
  Ge  Ge7  1  0.00744316  0.34329316  0.67855441  1
  Ge  Ge8  1  0.33585001  0.99255684  0.67855441  1
  Pd  Pd9  1  0.65641276  0.92924133  0.08016585  1
  Pd  Pd10  1  0.07075867  0.72717144  0.08016585  1
  Pd  Pd11  1  0.27282856  0.34358724  0.08016585  1
  Pd  Pd12  1  0.41878077  0.09265234  0.18623758  1
  Pd  Pd13  1  0.90734766  0.32612744  0.18623758  1
  Pd  Pd14  1  0.67387256  0.58121923  0.18623758  1
  Pd  Pd15  1  0.58121923  0.90734766  0.81376242  1
  Pd  Pd16  1  0.09265234  0.67387256  0.81376242  1
  Pd  Pd17  1  0.32612744  0.41878077  0.81376242  1
  Pd  Pd18  1  0.33333300  0.66666700  0.60707884  1
  Pd  Pd19  1  0.66666700  0.33333300  0.39292116  1
  Pd  Pd20  1  0.33333300  0.66666700  0.24231070  1
  Pd  Pd21  1  0.66666700  0.33333300  0.75768930  1
  Pd  Pd22  1  -0.00000000  0.00000000  0.24952493  1
  Pd  Pd23  1  -0.00000000  0.00000000  0.75047507  1
  Pd  Pd24  1  -0.00000000  0.00000000  0.50000000  1
  Pd  Pd25  1  0.72717144  0.65641276  0.91983415  1
  Pd  Pd26  1  0.92924133  0.27282856  0.91983415  1
  Pd  Pd27  1  0.34358724  0.07075867  0.91983415  1
  Pd  Pd28  1  0.37992658  0.30673945  0.56889988  1
  Pd  Pd29  1  0.92681286  0.62007342  0.56889988  1
  Pd  Pd30  1  0.69326055  0.07318714  0.56889988  1
  Pd  Pd31  1  0.62007342  0.69326055  0.43110012  1
  Pd  Pd32  1  0.07318714  0.37992658  0.43110012  1
  Pd  Pd33  1  0.30673945  0.92681286  0.43110012  1
