# generated using pymatgen
data_Cr3Te4
_symmetry_space_group_name_H-M   'P 1'
_cell_length_a   7.40159381
_cell_length_b   7.40159381
_cell_length_c   6.98398672
_cell_angle_alpha   63.06614049
_cell_angle_beta   63.06614049
_cell_angle_gamma   31.37459530
_symmetry_Int_Tables_number   1
_chemical_formula_structural   Cr3Te4
_chemical_formula_sum   'Cr3 Te4'
_cell_volume   175.77336816
_cell_formula_units_Z   1
loop_
 _symmetry_equiv_pos_site_id
 _symmetry_equiv_pos_as_xyz
  1  'x, y, z'
loop_
 _atom_site_type_symbol
 _atom_site_label
 _atom_site_symmetry_multiplicity
 _atom_site_fract_x
 _atom_site_fract_y
 _atom_site_fract_z
 _atom_site_occupancy
  Cr  Cr0  1  0.00000000  0.00000000  0.00000000  1
  Cr  Cr1  1  0.25933250  0.25933250  0.72285042  1
  Cr  Cr2  1  0.74066750  0.74066750  0.27714958  1
  Te  Te3  1  0.36666873  0.36666873  0.97336520  1
  Te  Te4  1  0.63333127  0.63333127  0.02663480  1
  Te  Te5  1  0.12261248  0.12261248  0.54784175  1
  Te  Te6  1  0.87738752  0.87738752  0.45215825  1
