# generated using pymatgen
data_ThCu5Sn
_symmetry_space_group_name_H-M   'P 1'
_cell_length_a   5.05406776
_cell_length_b   8.30553472
_cell_length_c   10.56519443
_cell_angle_alpha   90.00000000
_cell_angle_beta   90.00000000
_cell_angle_gamma   90.00000000
_symmetry_Int_Tables_number   1
_chemical_formula_structural   ThCu5Sn
_chemical_formula_sum   'Th4 Cu20 Sn4'
_cell_volume   443.49236954
_cell_formula_units_Z   4
loop_
 _symmetry_equiv_pos_site_id
 _symmetry_equiv_pos_as_xyz
  1  'x, y, z'
loop_
 _atom_site_type_symbol
 _atom_site_label
 _atom_site_symmetry_multiplicity
 _atom_site_fract_x
 _atom_site_fract_y
 _atom_site_fract_z
 _atom_site_occupancy
  Th  Th0  1  0.75000000  0.25053317  0.94356479  1
  Th  Th1  1  0.25000000  0.74946683  0.05643521  1
  Th  Th2  1  0.75000000  0.75053317  0.55643521  1
  Th  Th3  1  0.25000000  0.24946683  0.44356479  1
  Cu  Cu4  1  0.00137004  0.42780838  0.18631977  1
  Cu  Cu5  1  0.50137004  0.57219162  0.81368023  1
  Cu  Cu6  1  0.49862996  0.92780838  0.31368023  1
  Cu  Cu7  1  0.99862996  0.07219162  0.68631977  1
  Cu  Cu8  1  0.99862996  0.57219162  0.81368023  1
  Cu  Cu9  1  0.49862996  0.42780838  0.18631977  1
  Cu  Cu10  1  0.50137004  0.07219162  0.68631977  1
  Cu  Cu11  1  0.00137004  0.92780838  0.31368023  1
  Cu  Cu12  1  0.75000000  0.43179994  0.39225414  1
  Cu  Cu13  1  0.25000000  0.56820006  0.60774586  1
  Cu  Cu14  1  0.75000000  0.93179994  0.10774586  1
  Cu  Cu15  1  0.25000000  0.06820006  0.89225414  1
  Cu  Cu16  1  0.75000000  0.17912198  0.25458644  1
  Cu  Cu17  1  0.25000000  0.82087802  0.74541356  1
  Cu  Cu18  1  0.75000000  0.67912198  0.24541356  1
  Cu  Cu19  1  0.25000000  0.32087802  0.75458644  1
  Cu  Cu20  1  0.75000000  0.07973140  0.48128326  1
  Cu  Cu21  1  0.25000000  0.92026860  0.51871674  1
  Cu  Cu22  1  0.75000000  0.57973140  0.01871674  1
  Cu  Cu23  1  0.25000000  0.42026860  0.98128326  1
  Sn  Sn24  1  0.75000000  0.36522719  0.64143809  1
  Sn  Sn25  1  0.25000000  0.63477281  0.35856191  1
  Sn  Sn26  1  0.75000000  0.86522719  0.85856191  1
  Sn  Sn27  1  0.25000000  0.13477281  0.14143809  1
