# generated using pymatgen
data_LuGaPd
_symmetry_space_group_name_H-M   'P 1'
_cell_length_a   4.38969032
_cell_length_b   6.75063551
_cell_length_c   7.51839865
_cell_angle_alpha   89.99670229
_cell_angle_beta   90.00000000
_cell_angle_gamma   90.00000000
_symmetry_Int_Tables_number   1
_chemical_formula_structural   LuGaPd
_chemical_formula_sum   'Lu4 Ga4 Pd4'
_cell_volume   222.79420582
_cell_formula_units_Z   4
loop_
 _symmetry_equiv_pos_site_id
 _symmetry_equiv_pos_as_xyz
  1  'x, y, z'
loop_
 _atom_site_type_symbol
 _atom_site_label
 _atom_site_symmetry_multiplicity
 _atom_site_fract_x
 _atom_site_fract_y
 _atom_site_fract_z
 _atom_site_occupancy
  Lu  Lu0  1  0.25000000  0.48652522  0.20217020  1
  Lu  Lu1  1  0.75000000  0.51349715  0.79780664  1
  Lu  Lu2  1  0.75000000  0.01347429  0.70216806  1
  Lu  Lu3  1  0.25000000  0.98654553  0.29779916  1
  Ga  Ga4  1  0.25000000  0.81812093  0.92199202  1
  Ga  Ga5  1  0.75000000  0.18186261  0.07798411  1
  Ga  Ga6  1  0.75000000  0.68186231  0.42202393  1
  Ga  Ga7  1  0.25000000  0.31814745  0.57805965  1
  Pd  Pd8  1  0.25000000  0.72011838  0.59374227  1
  Pd  Pd9  1  0.75000000  0.27990003  0.40626219  1
  Pd  Pd10  1  0.75000000  0.77975107  0.09372522  1
  Pd  Pd11  1  0.25000000  0.22019503  0.90626755  1
