# generated using pymatgen
data_Sm3DyS4
_symmetry_space_group_name_H-M   'P 1'
_cell_length_a   3.97016664
_cell_length_b   5.62869828
_cell_length_c   7.96365533
_cell_angle_alpha   90.00000000
_cell_angle_beta   90.00000000
_cell_angle_gamma   90.00000000
_symmetry_Int_Tables_number   1
_chemical_formula_structural   Sm3DyS4
_chemical_formula_sum   'Sm3 Dy1 S4'
_cell_volume   177.96277148
_cell_formula_units_Z   1
loop_
 _symmetry_equiv_pos_site_id
 _symmetry_equiv_pos_as_xyz
  1  'x, y, z'
loop_
 _atom_site_type_symbol
 _atom_site_label
 _atom_site_symmetry_multiplicity
 _atom_site_fract_x
 _atom_site_fract_y
 _atom_site_fract_z
 _atom_site_occupancy
  Sm  Sm0  1  0.50000000  0.50000000  0.25320636  1
  Sm  Sm1  1  0.00000000  -0.00000000  0.50000000  1
  Sm  Sm2  1  0.50000000  0.50000000  0.74679364  1
  Dy  Dy3  1  0.00000000  -0.00000000  -0.00000000  1
  S  S4  1  0.00000000  0.50000000  0.50000000  1
  S  S5  1  0.50000000  -0.00000000  0.75848463  1
  S  S6  1  0.00000000  0.50000000  -0.00000000  1
  S  S7  1  0.50000000  -0.00000000  0.24151537  1
