# generated using pymatgen
data_GdCu4Au
_symmetry_space_group_name_H-M   'P 1'
_cell_length_a   5.01713428
_cell_length_b   5.01712639
_cell_length_c   5.01712854
_cell_angle_alpha   60.00189299
_cell_angle_beta   60.00203165
_cell_angle_gamma   60.00184753
_symmetry_Int_Tables_number   1
_chemical_formula_structural   GdCu4Au
_chemical_formula_sum   'Gd1 Cu4 Au1'
_cell_volume   89.30380046
_cell_formula_units_Z   1
loop_
 _symmetry_equiv_pos_site_id
 _symmetry_equiv_pos_as_xyz
  1  'x, y, z'
loop_
 _atom_site_type_symbol
 _atom_site_label
 _atom_site_symmetry_multiplicity
 _atom_site_fract_x
 _atom_site_fract_y
 _atom_site_fract_z
 _atom_site_occupancy
  Gd  Gd0  1  0.99999823  0.00000015  0.99999791  1
  Cu  Cu1  1  0.62391981  0.62392091  0.12823510  1
  Cu  Cu2  1  0.62392197  0.12823434  0.62392084  1
  Cu  Cu3  1  0.12823717  0.62392112  0.62392185  1
  Cu  Cu4  1  0.62392228  0.62392597  0.62392669  1
  Au  Au5  1  0.25000154  0.24999950  0.24999861  1
