# generated using pymatgen
data_HoZnRh
_symmetry_space_group_name_H-M   'P 1'
_cell_length_a   3.98348305
_cell_length_b   6.87568886
_cell_length_c   8.04237643
_cell_angle_alpha   90.00000000
_cell_angle_beta   90.00000000
_cell_angle_gamma   90.00000000
_symmetry_Int_Tables_number   1
_chemical_formula_structural   HoZnRh
_chemical_formula_sum   'Ho4 Zn4 Rh4'
_cell_volume   220.27417634
_cell_formula_units_Z   4
loop_
 _symmetry_equiv_pos_site_id
 _symmetry_equiv_pos_as_xyz
  1  'x, y, z'
loop_
 _atom_site_type_symbol
 _atom_site_label
 _atom_site_symmetry_multiplicity
 _atom_site_fract_x
 _atom_site_fract_y
 _atom_site_fract_z
 _atom_site_occupancy
  Ho  Ho0  1  0.25000000  0.53920331  0.81637798  1
  Ho  Ho1  1  0.75000000  0.46079669  0.18362202  1
  Ho  Ho2  1  0.25000000  0.03920331  0.68362202  1
  Ho  Ho3  1  0.75000000  0.96079669  0.31637798  1
  Zn  Zn4  1  0.25000000  0.13610179  0.06311104  1
  Zn  Zn5  1  0.75000000  0.86389821  0.93688896  1
  Zn  Zn6  1  0.25000000  0.63610179  0.43688896  1
  Zn  Zn7  1  0.75000000  0.36389821  0.56311104  1
  Rh  Rh8  1  0.75000000  0.74512656  0.62418788  1
  Rh  Rh9  1  0.25000000  0.25487344  0.37581212  1
  Rh  Rh10  1  0.75000000  0.24512656  0.87581212  1
  Rh  Rh11  1  0.25000000  0.75487344  0.12418788  1
