# generated using pymatgen
data_DyB2Rh3
_symmetry_space_group_name_H-M   'P 1'
_cell_length_a   3.14592083
_cell_length_b   5.36557374
_cell_length_c   5.36674409
_cell_angle_alpha   60.00721986
_cell_angle_beta   90.00256445
_cell_angle_gamma   90.00511932
_symmetry_Int_Tables_number   1
_chemical_formula_structural   DyB2Rh3
_chemical_formula_sum   'Dy1 B2 Rh3'
_cell_volume   78.45796938
_cell_formula_units_Z   1
loop_
 _symmetry_equiv_pos_site_id
 _symmetry_equiv_pos_as_xyz
  1  'x, y, z'
loop_
 _atom_site_type_symbol
 _atom_site_label
 _atom_site_symmetry_multiplicity
 _atom_site_fract_x
 _atom_site_fract_y
 _atom_site_fract_z
 _atom_site_occupancy
  Dy  Dy0  1  0.50000000  0.50000000  -0.00000000  1
  B  B1  1  0.50000000  0.16666708  0.66666385  1
  B  B2  1  0.50000000  0.83333292  0.33333615  1
  Rh  Rh3  1  0.00000000  0.00000000  0.50000000  1
  Rh  Rh4  1  0.00000000  0.50000000  0.50000000  1
  Rh  Rh5  1  0.00000000  0.00000000  -0.00000000  1
