# generated using pymatgen
data_LaNdC4
_symmetry_space_group_name_H-M   'P 1'
_cell_length_a   4.26403948
_cell_length_b   4.26403948
_cell_length_c   7.58047307
_cell_angle_alpha   65.16359046
_cell_angle_beta   65.16359046
_cell_angle_gamma   54.36282511
_symmetry_Int_Tables_number   1
_chemical_formula_structural   LaNdC4
_chemical_formula_sum   'La1 Nd1 C4'
_cell_volume   98.74300144
_cell_formula_units_Z   1
loop_
 _symmetry_equiv_pos_site_id
 _symmetry_equiv_pos_as_xyz
  1  'x, y, z'
loop_
 _atom_site_type_symbol
 _atom_site_label
 _atom_site_symmetry_multiplicity
 _atom_site_fract_x
 _atom_site_fract_y
 _atom_site_fract_z
 _atom_site_occupancy
  La  La0  1  0.50000000  0.50000000  0.50000000  1
  Nd  Nd1  1  -0.00000000  -0.00000000  -0.00000000  1
  C  C2  1  0.79654680  0.79654680  0.80630683  1
  C  C3  1  0.30272814  0.30272814  0.29265752  1
  C  C4  1  0.20345320  0.20345320  0.19369317  1
  C  C5  1  0.69727186  0.69727186  0.70734248  1
