# generated using pymatgen
data_Cs2As3
_symmetry_space_group_name_H-M   'P 1'
_cell_length_a   7.18077642
_cell_length_b   7.18077766
_cell_length_c   9.26445938
_cell_angle_alpha   110.77656987
_cell_angle_beta   110.77659177
_cell_angle_gamma   94.90711177
_symmetry_Int_Tables_number   1
_chemical_formula_structural   Cs2As3
_chemical_formula_sum   'Cs4 As6'
_cell_volume   405.20728931
_cell_formula_units_Z   2
loop_
 _symmetry_equiv_pos_site_id
 _symmetry_equiv_pos_as_xyz
  1  'x, y, z'
loop_
 _atom_site_type_symbol
 _atom_site_label
 _atom_site_symmetry_multiplicity
 _atom_site_fract_x
 _atom_site_fract_y
 _atom_site_fract_z
 _atom_site_occupancy
  Cs  Cs0  1  0.75004742  0.24995270  0.49999988  1
  Cs  Cs1  1  0.24995270  0.75004742  0.49999988  1
  Cs  Cs2  1  0.27224120  0.72775983  0.00000002  1
  Cs  Cs3  1  0.72775983  0.27224020  0.99999902  1
  As  As4  1  0.71158040  0.71158040  0.84850988  1
  As  As5  1  0.86290627  0.86290627  0.15129185  1
  As  As6  1  0.28841894  0.28841894  0.15149039  1
  As  As7  1  0.13709351  0.13709351  0.84870842  1
  As  As8  1  0.84774726  0.84774726  0.69562314  1
  As  As9  1  0.15225246  0.15225246  0.30437752  1
