# generated using pymatgen
data_LaCrReO6
_symmetry_space_group_name_H-M   'P 1'
_cell_length_a   5.47829200
_cell_length_b   5.48107122
_cell_length_c   5.48029661
_cell_angle_alpha   119.89314481
_cell_angle_beta   90.17687574
_cell_angle_gamma   119.84755002
_symmetry_Int_Tables_number   1
_chemical_formula_structural   LaCrReO6
_chemical_formula_sum   'La1 Cr1 Re1 O6'
_cell_volume   116.63472981
_cell_formula_units_Z   1
loop_
 _symmetry_equiv_pos_site_id
 _symmetry_equiv_pos_as_xyz
  1  'x, y, z'
loop_
 _atom_site_type_symbol
 _atom_site_label
 _atom_site_symmetry_multiplicity
 _atom_site_fract_x
 _atom_site_fract_y
 _atom_site_fract_z
 _atom_site_occupancy
  La  La0  1  0.00632900  0.24465200  0.73968100  1
  Cr  Cr1  1  0.50910900  0.99916800  0.48968100  1
  Re  Re2  1  0.50969300  0.49862500  0.99009600  1
  O  O3  1  0.45494200  0.69384300  0.74648300  1
  O  O4  1  0.00194900  0.76949200  0.71752600  1
  O  O5  1  0.01659400  0.23704400  0.27156300  1
  O  O6  1  0.52433600  0.77489300  0.20666200  1
  O  O7  1  0.50451700  0.22997800  0.76635700  1
  O  O8  1  0.55411800  0.29206700  0.23053900  1
