# generated using pymatgen
data_Tb6Zn23
_symmetry_space_group_name_H-M   'P 1'
_cell_length_a   8.89179479
_cell_length_b   8.89179479
_cell_length_c   8.89179479
_cell_angle_alpha   60.00000000
_cell_angle_beta   60.00000000
_cell_angle_gamma   60.00000000
_symmetry_Int_Tables_number   1
_chemical_formula_structural   Tb6Zn23
_chemical_formula_sum   'Tb6 Zn23'
_cell_volume   497.11091076
_cell_formula_units_Z   1
loop_
 _symmetry_equiv_pos_site_id
 _symmetry_equiv_pos_as_xyz
  1  'x, y, z'
loop_
 _atom_site_type_symbol
 _atom_site_label
 _atom_site_symmetry_multiplicity
 _atom_site_fract_x
 _atom_site_fract_y
 _atom_site_fract_z
 _atom_site_occupancy
  Tb  Tb0  1  0.70877474  0.70877474  0.29122526  1
  Tb  Tb1  1  0.29122526  0.70877474  0.29122526  1
  Tb  Tb2  1  0.70877474  0.29122526  0.29122526  1
  Tb  Tb3  1  0.29122526  0.29122526  0.70877474  1
  Tb  Tb4  1  0.70877474  0.29122526  0.70877474  1
  Tb  Tb5  1  0.29122526  0.70877474  0.70877474  1
  Zn  Zn6  1  -0.00000000  -0.00000000  -0.00000000  1
  Zn  Zn7  1  -0.00000000  -0.00000000  0.50000000  1
  Zn  Zn8  1  0.50000000  -0.00000000  0.50000000  1
  Zn  Zn9  1  -0.00000000  0.50000000  0.50000000  1
  Zn  Zn10  1  0.50000000  0.50000000  -0.00000000  1
  Zn  Zn11  1  -0.00000000  0.50000000  -0.00000000  1
  Zn  Zn12  1  0.50000000  -0.00000000  -0.00000000  1
  Zn  Zn13  1  0.87631020  0.87631020  0.37106839  1
  Zn  Zn14  1  0.87631020  0.37106839  0.87631020  1
  Zn  Zn15  1  0.37106839  0.87631020  0.87631020  1
  Zn  Zn16  1  0.87631020  0.87631020  0.87631020  1
  Zn  Zn17  1  0.12368980  0.12368980  0.62893161  1
  Zn  Zn18  1  0.12368980  0.62893161  0.12368980  1
  Zn  Zn19  1  0.62893161  0.12368980  0.12368980  1
  Zn  Zn20  1  0.12368980  0.12368980  0.12368980  1
  Zn  Zn21  1  0.67248978  0.67248978  0.98252967  1
  Zn  Zn22  1  0.67248978  0.98252967  0.67248978  1
  Zn  Zn23  1  0.98252967  0.67248978  0.67248978  1
  Zn  Zn24  1  0.67248978  0.67248978  0.67248978  1
  Zn  Zn25  1  0.32751022  0.32751022  0.01747033  1
  Zn  Zn26  1  0.32751022  0.01747033  0.32751022  1
  Zn  Zn27  1  0.01747033  0.32751022  0.32751022  1
  Zn  Zn28  1  0.32751022  0.32751022  0.32751022  1
