# generated using pymatgen
data_Er3Ge3Ru2
_symmetry_space_group_name_H-M   'P 1'
_cell_length_a   5.75658531
_cell_length_b   5.75658531
_cell_length_c   13.79059099
_cell_angle_alpha   90.00000000
_cell_angle_beta   90.00000000
_cell_angle_gamma   136.96624265
_symmetry_Int_Tables_number   1
_chemical_formula_structural   Er3Ge3Ru2
_chemical_formula_sum   'Er6 Ge6 Ru4'
_cell_volume   311.86765179
_cell_formula_units_Z   2
loop_
 _symmetry_equiv_pos_site_id
 _symmetry_equiv_pos_as_xyz
  1  'x, y, z'
loop_
 _atom_site_type_symbol
 _atom_site_label
 _atom_site_symmetry_multiplicity
 _atom_site_fract_x
 _atom_site_fract_y
 _atom_site_fract_z
 _atom_site_occupancy
  Er  Er0  1  0.92139605  0.07860395  0.38720023  1
  Er  Er1  1  0.07860395  0.92139605  0.61279977  1
  Er  Er2  1  0.92139605  0.07860395  0.11279977  1
  Er  Er3  1  0.07860395  0.92139605  0.88720023  1
  Er  Er4  1  0.64748130  0.35251870  0.25000000  1
  Er  Er5  1  0.35251870  0.64748130  0.75000000  1
  Ge  Ge6  1  0.61606080  0.38393920  0.45940570  1
  Ge  Ge7  1  0.38393920  0.61606080  0.54059430  1
  Ge  Ge8  1  0.61606080  0.38393920  0.04059430  1
  Ge  Ge9  1  0.38393920  0.61606080  0.95940570  1
  Ge  Ge10  1  0.33712599  0.66287401  0.25000000  1
  Ge  Ge11  1  0.66287401  0.33712599  0.75000000  1
  Ru  Ru12  1  0.78686338  0.21313662  0.91744640  1
  Ru  Ru13  1  0.21313662  0.78686338  0.08255260  1
  Ru  Ru14  1  0.78686338  0.21313662  0.58255260  1
  Ru  Ru15  1  0.21313662  0.78686338  0.41744640  1
