# generated using pymatgen
data_YbAg2
_symmetry_space_group_name_H-M   'P 1'
_cell_length_a   5.23053666
_cell_length_b   5.23053666
_cell_length_c   5.23053666
_cell_angle_alpha   139.22749598
_cell_angle_beta   139.22749598
_cell_angle_gamma   59.02813622
_symmetry_Int_Tables_number   1
_chemical_formula_structural   YbAg2
_chemical_formula_sum   'Yb1 Ag2'
_cell_volume   60.44490020
_cell_formula_units_Z   1
loop_
 _symmetry_equiv_pos_site_id
 _symmetry_equiv_pos_as_xyz
  1  'x, y, z'
loop_
 _atom_site_type_symbol
 _atom_site_label
 _atom_site_symmetry_multiplicity
 _atom_site_fract_x
 _atom_site_fract_y
 _atom_site_fract_z
 _atom_site_occupancy
  Yb  Yb0  1  0.00000000  0.00000000  0.00000000  1
  Ag  Ag1  1  0.66926501  0.66926501  0.00000000  1
  Ag  Ag2  1  0.33073499  0.33073499  0.00000000  1
