# generated using pymatgen
data_SmAlAu
_symmetry_space_group_name_H-M   'P 1'
_cell_length_a   4.52027496
_cell_length_b   7.37310736
_cell_length_c   7.77084468
_cell_angle_alpha   90.00000000
_cell_angle_beta   90.00000000
_cell_angle_gamma   90.00000000
_symmetry_Int_Tables_number   1
_chemical_formula_structural   SmAlAu
_chemical_formula_sum   'Sm4 Al4 Au4'
_cell_volume   258.99038382
_cell_formula_units_Z   4
loop_
 _symmetry_equiv_pos_site_id
 _symmetry_equiv_pos_as_xyz
  1  'x, y, z'
loop_
 _atom_site_type_symbol
 _atom_site_label
 _atom_site_symmetry_multiplicity
 _atom_site_fract_x
 _atom_site_fract_y
 _atom_site_fract_z
 _atom_site_occupancy
  Sm  Sm0  1  0.25000000  0.00867596  0.30316597  1
  Sm  Sm1  1  0.25000000  0.50867596  0.19683403  1
  Sm  Sm2  1  0.75000000  0.99132404  0.69683403  1
  Sm  Sm3  1  0.75000000  0.49132404  0.80316597  1
  Al  Al4  1  0.25000000  0.17326693  0.92092467  1
  Al  Al5  1  0.25000000  0.67326693  0.57907533  1
  Al  Al6  1  0.75000000  0.82673307  0.07907533  1
  Al  Al7  1  0.75000000  0.32673307  0.42092467  1
  Au  Au8  1  0.25000000  0.29287071  0.59327537  1
  Au  Au9  1  0.25000000  0.79287071  0.90672463  1
  Au  Au10  1  0.75000000  0.70712929  0.40672463  1
  Au  Au11  1  0.75000000  0.20712929  0.09327537  1
