# generated using pymatgen
data_GdBr
_symmetry_space_group_name_H-M   'P 1'
_cell_length_a   3.86420570
_cell_length_b   3.86420570
_cell_length_c   10.07333812
_cell_angle_alpha   90.00000000
_cell_angle_beta   90.00000000
_cell_angle_gamma   119.99999865
_symmetry_Int_Tables_number   1
_chemical_formula_structural   GdBr
_chemical_formula_sum   'Gd2 Br2'
_cell_volume   130.26403397
_cell_formula_units_Z   2
loop_
 _symmetry_equiv_pos_site_id
 _symmetry_equiv_pos_as_xyz
  1  'x, y, z'
loop_
 _atom_site_type_symbol
 _atom_site_label
 _atom_site_symmetry_multiplicity
 _atom_site_fract_x
 _atom_site_fract_y
 _atom_site_fract_z
 _atom_site_occupancy
  Gd  Gd0  1  0.66666700  0.33333300  0.85941043  1
  Gd  Gd1  1  0.33333300  0.66666700  0.14058957  1
  Br  Br2  1  0.66666700  0.33333300  0.33186512  1
  Br  Br3  1  0.33333300  0.66666700  0.66813488  1
