# generated using pymatgen
data_NdMg2Cu9
_symmetry_space_group_name_H-M   'P 1'
_cell_length_a   5.00445949
_cell_length_b   5.00445902
_cell_length_c   16.04596918
_cell_angle_alpha   89.99994535
_cell_angle_beta   90.00007098
_cell_angle_gamma   119.99213028
_symmetry_Int_Tables_number   1
_chemical_formula_structural   NdMg2Cu9
_chemical_formula_sum   'Nd2 Mg4 Cu18'
_cell_volume   348.05296317
_cell_formula_units_Z   2
loop_
 _symmetry_equiv_pos_site_id
 _symmetry_equiv_pos_as_xyz
  1  'x, y, z'
loop_
 _atom_site_type_symbol
 _atom_site_label
 _atom_site_symmetry_multiplicity
 _atom_site_fract_x
 _atom_site_fract_y
 _atom_site_fract_z
 _atom_site_occupancy
  Nd  Nd0  1  0.66666732  0.33333273  0.24999796  1
  Nd  Nd1  1  0.33333306  0.66666701  0.75000333  1
  Mg  Mg2  1  0.66666954  0.33333087  0.46900940  1
  Mg  Mg3  1  0.33333043  0.66666964  0.96904109  1
  Mg  Mg4  1  0.66666915  0.33333048  0.03100448  1
  Mg  Mg5  1  0.33333060  0.66666938  0.53094685  1
  Cu  Cu6  1  0.33332691  0.66667304  0.24996011  1
  Cu  Cu7  1  0.66667290  0.33332732  0.75004372  1
  Cu  Cu8  1  0.16795713  0.83204358  0.37739214  1
  Cu  Cu9  1  0.16794669  0.33590050  0.37738985  1
  Cu  Cu10  1  0.99999210  1.00000775  0.75003807  1
  Cu  Cu11  1  1.00000836  0.99999184  0.24996670  1
  Cu  Cu12  1  0.99999981  0.99999976  1.00003167  1
  Cu  Cu13  1  0.99999990  1.00000005  0.49996221  1
  Cu  Cu14  1  0.16793844  0.33588436  0.12251571  1
  Cu  Cu15  1  0.83205976  0.16794093  0.62256367  1
  Cu  Cu16  1  0.33586655  0.16793008  0.62256586  1
  Cu  Cu17  1  0.66411496  0.83206161  0.12251544  1
  Cu  Cu18  1  0.16794873  0.83205127  0.12251324  1
  Cu  Cu19  1  0.83207613  0.66414296  0.87752700  1
  Cu  Cu20  1  0.83206458  0.16793486  0.87752928  1
  Cu  Cu21  1  0.83206908  0.66413290  0.62256556  1
  Cu  Cu22  1  0.33585740  0.16792465  0.87752716  1
  Cu  Cu23  1  0.66410047  0.83205344  0.37738951  1
