# generated using pymatgen
data_CaGa2Ni
_symmetry_space_group_name_H-M   'P 1'
_cell_length_a   5.58511366
_cell_length_b   5.58511366
_cell_length_c   6.90954114
_cell_angle_alpha   90.00000000
_cell_angle_beta   90.00000000
_cell_angle_gamma   138.12606508
_symmetry_Int_Tables_number   1
_chemical_formula_structural   CaGa2Ni
_chemical_formula_sum   'Ca2 Ga4 Ni2'
_cell_volume   143.86678189
_cell_formula_units_Z   2
loop_
 _symmetry_equiv_pos_site_id
 _symmetry_equiv_pos_as_xyz
  1  'x, y, z'
loop_
 _atom_site_type_symbol
 _atom_site_label
 _atom_site_symmetry_multiplicity
 _atom_site_fract_x
 _atom_site_fract_y
 _atom_site_fract_z
 _atom_site_occupancy
  Ca  Ca0  1  0.55477006  0.44522994  0.75000000  1
  Ca  Ca1  1  0.44522994  0.55477006  0.25000000  1
  Ga  Ga2  1  0.83475514  0.16524486  0.94287059  1
  Ga  Ga3  1  0.16524486  0.83475514  0.05712941  1
  Ga  Ga4  1  0.83475514  0.16524486  0.55712941  1
  Ga  Ga5  1  0.16524486  0.83475514  0.44287059  1
  Ni  Ni6  1  0.71908855  0.28091145  0.25000000  1
  Ni  Ni7  1  0.28091145  0.71908855  0.75000000  1
