# generated using pymatgen
data_Th(PRu)2
_symmetry_space_group_name_H-M   'P 1'
_cell_length_a   4.15430297
_cell_length_b   7.55539389
_cell_length_c   10.47718520
_cell_angle_alpha   90.00000000
_cell_angle_beta   90.00000000
_cell_angle_gamma   90.00000000
_symmetry_Int_Tables_number   1
_chemical_formula_structural   Th(PRu)2
_chemical_formula_sum   'Th4 P8 Ru8'
_cell_volume   328.85155326
_cell_formula_units_Z   4
loop_
 _symmetry_equiv_pos_site_id
 _symmetry_equiv_pos_as_xyz
  1  'x, y, z'
loop_
 _atom_site_type_symbol
 _atom_site_label
 _atom_site_symmetry_multiplicity
 _atom_site_fract_x
 _atom_site_fract_y
 _atom_site_fract_z
 _atom_site_occupancy
  Th  Th0  1  0.25000000  0.76583493  0.16876597  1
  Th  Th1  1  0.75000000  0.23416507  0.83123403  1
  Th  Th2  1  0.25000000  0.26583493  0.33123403  1
  Th  Th3  1  0.75000000  0.73416507  0.66876597  1
  P  P4  1  0.25000000  0.59550185  0.46948792  1
  P  P5  1  0.75000000  0.40449815  0.53051208  1
  P  P6  1  0.25000000  0.09550185  0.03051208  1
  P  P7  1  0.75000000  0.90449815  0.96948792  1
  P  P8  1  0.25000000  0.03038596  0.65879420  1
  P  P9  1  0.75000000  0.96961404  0.34120580  1
  P  P10  1  0.25000000  0.53038596  0.84120580  1
  P  P11  1  0.75000000  0.46961404  0.15879420  1
  Ru  Ru12  1  0.75000000  0.61094673  0.95076657  1
  Ru  Ru13  1  0.25000000  0.38905327  0.04923343  1
  Ru  Ru14  1  0.75000000  0.11094673  0.54923343  1
  Ru  Ru15  1  0.25000000  0.88905327  0.45076657  1
  Ru  Ru16  1  0.25000000  0.36841365  0.63155436  1
  Ru  Ru17  1  0.75000000  0.63158635  0.36844564  1
  Ru  Ru18  1  0.25000000  0.86841365  0.86844564  1
  Ru  Ru19  1  0.75000000  0.13158635  0.13155436  1
