# generated using pymatgen
data_Mn2SbAs
_symmetry_space_group_name_H-M   'P 1'
_cell_length_a   3.93248403
_cell_length_b   3.93248403
_cell_length_c   5.86765346
_cell_angle_alpha   90.00000000
_cell_angle_beta   90.00000000
_cell_angle_gamma   120.00000013
_symmetry_Int_Tables_number   1
_chemical_formula_structural   Mn2SbAs
_chemical_formula_sum   'Mn2 Sb1 As1'
_cell_volume   78.58307565
_cell_formula_units_Z   1
loop_
 _symmetry_equiv_pos_site_id
 _symmetry_equiv_pos_as_xyz
  1  'x, y, z'
loop_
 _atom_site_type_symbol
 _atom_site_label
 _atom_site_symmetry_multiplicity
 _atom_site_fract_x
 _atom_site_fract_y
 _atom_site_fract_z
 _atom_site_occupancy
  Mn  Mn0  1  -0.00000000  0.00000000  0.23525020  1
  Mn  Mn1  1  0.00000000  -0.00000000  0.76474811  1
  Sb  Sb2  1  0.33333300  0.66666700  0.49998891  1
  As  As3  1  0.66666700  0.33333300  0.00001277  1
