# generated using pymatgen
data_Eu(CuSn)2
_symmetry_space_group_name_H-M   'P 1'
_cell_length_a   5.98444366
_cell_length_b   5.98444366
_cell_length_c   4.75660312
_cell_angle_alpha   72.58923568
_cell_angle_beta   72.58923568
_cell_angle_gamma   42.01083813
_symmetry_Int_Tables_number   1
_chemical_formula_structural   Eu(CuSn)2
_chemical_formula_sum   'Eu1 Cu2 Sn2'
_cell_volume   107.99595097
_cell_formula_units_Z   1
loop_
 _symmetry_equiv_pos_site_id
 _symmetry_equiv_pos_as_xyz
  1  'x, y, z'
loop_
 _atom_site_type_symbol
 _atom_site_label
 _atom_site_symmetry_multiplicity
 _atom_site_fract_x
 _atom_site_fract_y
 _atom_site_fract_z
 _atom_site_occupancy
  Eu  Eu0  1  0.00000000  0.00000000  -0.00000000  1
  Cu  Cu1  1  0.74214338  0.74214338  0.85591815  1
  Cu  Cu2  1  0.25785662  0.25785662  0.14408185  1
  Sn  Sn3  1  0.35901926  0.35901926  0.57185733  1
  Sn  Sn4  1  0.64098074  0.64098074  0.42814267  1
