# generated using pymatgen
data_Ti3(SeS2)2
_symmetry_space_group_name_H-M   'P 1'
_cell_length_a   3.46491711
_cell_length_b   3.46491711
_cell_length_c   18.28123351
_cell_angle_alpha   90.00000000
_cell_angle_beta   90.00000000
_cell_angle_gamma   120.00001127
_symmetry_Int_Tables_number   1
_chemical_formula_structural   Ti3(SeS2)2
_chemical_formula_sum   'Ti3 Se2 S4'
_cell_volume   190.07359008
_cell_formula_units_Z   1
loop_
 _symmetry_equiv_pos_site_id
 _symmetry_equiv_pos_as_xyz
  1  'x, y, z'
loop_
 _atom_site_type_symbol
 _atom_site_label
 _atom_site_symmetry_multiplicity
 _atom_site_fract_x
 _atom_site_fract_y
 _atom_site_fract_z
 _atom_site_occupancy
  Ti  Ti0  1  0.66666700  0.33333300  0.00676243  1
  Ti  Ti1  1  0.66666700  0.33333300  0.33189479  1
  Ti  Ti2  1  0.66666700  0.33333300  0.67083506  1
  Se  Se3  1  0.33333300  0.66666700  0.58336300  1
  Se  Se4  1  0.33333300  0.66666700  0.91910752  1
  S  S5  1  -0.00000000  0.00000000  0.08005264  1
  S  S6  1  -0.00000000  0.00000000  0.40780773  1
  S  S7  1  -0.00000000  0.00000000  0.74432980  1
  S  S8  1  0.33333300  0.66666700  0.25584603  1
