# generated using pymatgen
data_Sc2P7Ru12
_symmetry_space_group_name_H-M   'P 1'
_cell_length_a   9.29226618
_cell_length_b   9.29227071
_cell_length_c   3.89528888
_cell_angle_alpha   89.99999892
_cell_angle_beta   89.99999880
_cell_angle_gamma   119.99994087
_symmetry_Int_Tables_number   1
_chemical_formula_structural   Sc2P7Ru12
_chemical_formula_sum   'Sc2 P7 Ru12'
_cell_volume   291.28227433
_cell_formula_units_Z   1
loop_
 _symmetry_equiv_pos_site_id
 _symmetry_equiv_pos_as_xyz
  1  'x, y, z'
loop_
 _atom_site_type_symbol
 _atom_site_label
 _atom_site_symmetry_multiplicity
 _atom_site_fract_x
 _atom_site_fract_y
 _atom_site_fract_z
 _atom_site_occupancy
  Sc  Sc0  1  0.66666795  0.33333190  0.49999983  1
  Sc  Sc1  1  0.33333644  0.66666869  -0.00000008  1
  P  P2  1  0.59747659  0.71768219  0.50000003  1
  P  P3  1  0.00000128  -0.00000128  0.00000002  1
  P  P4  1  0.28231726  0.87979508  0.50000002  1
  P  P5  1  0.12020450  0.40252238  0.50000006  1
  P  P6  1  0.88246442  0.57293609  -0.00000002  1
  P  P7  1  0.42706197  0.30952597  -0.00000003  1
  P  P8  1  0.69047391  0.11753657  -0.00000002  1
  Ru  Ru9  1  0.55397529  0.94663617  0.50000001  1
  Ru  Ru10  1  0.39265850  0.44602416  0.50000004  1
  Ru  Ru11  1  0.91440071  0.12249893  0.49999993  1
  Ru  Ru12  1  0.20809858  0.08559749  0.50000001  1
  Ru  Ru13  1  0.87750186  0.79190417  0.50000015  1
  Ru  Ru14  1  0.72618196  0.89073945  -0.00000003  1
  Ru  Ru15  1  0.10925694  0.83544187  -0.00000001  1
  Ru  Ru16  1  0.16455729  0.27381684  -0.00000002  1
  Ru  Ru17  1  0.42705340  0.06845992  -0.00000002  1
  Ru  Ru18  1  0.93154305  0.35859539  0.00000003  1
  Ru  Ru19  1  0.64140534  0.57294806  0.00000008  1
  Ru  Ru20  1  0.05336378  0.60733996  0.50000005  1
