# generated using pymatgen
data_EuGaAu
_symmetry_space_group_name_H-M   'P 1'
_cell_length_a   5.80187780
_cell_length_b   5.80187780
_cell_length_c   7.58851386
_cell_angle_alpha   51.26187352
_cell_angle_beta   51.26187352
_cell_angle_gamma   46.95167246
_symmetry_Int_Tables_number   1
_chemical_formula_structural   EuGaAu
_chemical_formula_sum   'Eu2 Ga2 Au2'
_cell_volume   136.48277050
_cell_formula_units_Z   2
loop_
 _symmetry_equiv_pos_site_id
 _symmetry_equiv_pos_as_xyz
  1  'x, y, z'
loop_
 _atom_site_type_symbol
 _atom_site_label
 _atom_site_symmetry_multiplicity
 _atom_site_fract_x
 _atom_site_fract_y
 _atom_site_fract_z
 _atom_site_occupancy
  Eu  Eu0  1  0.54628520  0.54628520  0.69189128  1
  Eu  Eu1  1  0.45371480  0.45371480  0.30810872  1
  Ga  Ga2  1  0.84097555  0.84097555  0.10072518  1
  Ga  Ga3  1  0.15902445  0.15902445  0.89927482  1
  Au  Au4  1  0.17996968  0.17996968  0.26656358  1
  Au  Au5  1  0.82003032  0.82003032  0.73343642  1
