# generated using pymatgen
data_ScCu2
_symmetry_space_group_name_H-M   'P 1'
_cell_length_a   3.27586449
_cell_length_b   3.27586449
_cell_length_c   4.76622137
_cell_angle_alpha   110.14689141
_cell_angle_beta   110.14689141
_cell_angle_gamma   89.97007199
_symmetry_Int_Tables_number   1
_chemical_formula_structural   ScCu2
_chemical_formula_sum   'Sc1 Cu2'
_cell_volume   44.67341018
_cell_formula_units_Z   1
loop_
 _symmetry_equiv_pos_site_id
 _symmetry_equiv_pos_as_xyz
  1  'x, y, z'
loop_
 _atom_site_type_symbol
 _atom_site_label
 _atom_site_symmetry_multiplicity
 _atom_site_fract_x
 _atom_site_fract_y
 _atom_site_fract_z
 _atom_site_occupancy
  Sc  Sc0  1  0.00000000  0.00000000  0.00000000  1
  Cu  Cu1  1  0.67312944  0.67312944  0.34768913  1
  Cu  Cu2  1  0.32687056  0.32687056  0.65231087  1
