# generated using pymatgen
data_BaCaPb
_symmetry_space_group_name_H-M   'P 1'
_cell_length_a   5.35674520
_cell_length_b   8.96828929
_cell_length_c   9.79675462
_cell_angle_alpha   90.00000000
_cell_angle_beta   90.00000000
_cell_angle_gamma   90.00000000
_symmetry_Int_Tables_number   1
_chemical_formula_structural   BaCaPb
_chemical_formula_sum   'Ba4 Ca4 Pb4'
_cell_volume   470.64432716
_cell_formula_units_Z   4
loop_
 _symmetry_equiv_pos_site_id
 _symmetry_equiv_pos_as_xyz
  1  'x, y, z'
loop_
 _atom_site_type_symbol
 _atom_site_label
 _atom_site_symmetry_multiplicity
 _atom_site_fract_x
 _atom_site_fract_y
 _atom_site_fract_z
 _atom_site_occupancy
  Ba  Ba0  1  0.25000000  0.52117025  0.31788454  1
  Ba  Ba1  1  0.25000000  0.02117025  0.18211546  1
  Ba  Ba2  1  0.75000000  0.47882975  0.68211546  1
  Ba  Ba3  1  0.75000000  0.97882975  0.81788454  1
  Ca  Ca4  1  0.25000000  0.64448972  0.92889957  1
  Ca  Ca5  1  0.25000000  0.14448972  0.57110043  1
  Ca  Ca6  1  0.75000000  0.35551028  0.07110043  1
  Ca  Ca7  1  0.75000000  0.85551028  0.42889957  1
  Pb  Pb8  1  0.25000000  0.27480014  0.89201241  1
  Pb  Pb9  1  0.25000000  0.77480014  0.60798759  1
  Pb  Pb10  1  0.75000000  0.72519986  0.10798759  1
  Pb  Pb11  1  0.75000000  0.22519986  0.39201241  1
