# generated using pymatgen
data_MgCo3(P2O7)2
_symmetry_space_group_name_H-M   'P 1'
_cell_length_a   7.32274284
_cell_length_b   7.18170940
_cell_length_c   9.56059163
_cell_angle_alpha   67.27721799
_cell_angle_beta   90.00000000
_cell_angle_gamma   90.00000000
_symmetry_Int_Tables_number   1
_chemical_formula_structural   MgCo3(P2O7)2
_chemical_formula_sum   'Mg2 Co6 P8 O28'
_cell_volume   463.76546937
_cell_formula_units_Z   2
loop_
 _symmetry_equiv_pos_site_id
 _symmetry_equiv_pos_as_xyz
  1  'x, y, z'
loop_
 _atom_site_type_symbol
 _atom_site_label
 _atom_site_symmetry_multiplicity
 _atom_site_fract_x
 _atom_site_fract_y
 _atom_site_fract_z
 _atom_site_occupancy
  Mg  Mg0  1  -0.00000000  0.50000000  0.00000000  1
  Mg  Mg1  1  0.50000000  0.50000000  0.50000000  1
  Co  Co2  1  0.13322508  0.81658952  0.52150440  1
  Co  Co3  1  0.63322508  0.18341048  0.97849560  1
  Co  Co4  1  0.86677492  0.18341048  0.47849560  1
  Co  Co5  1  0.36677492  0.81658952  0.02150440  1
  Co  Co6  1  -0.00000000  -0.00000000  0.00000000  1
  Co  Co7  1  0.50000000  -0.00000000  0.50000000  1
  P  P8  1  0.90857418  0.42019493  0.69847730  1
  P  P9  1  0.40857418  0.57980507  0.80152270  1
  P  P10  1  0.09142582  0.57980507  0.30152270  1
  P  P11  1  0.59142582  0.42019493  0.19847730  1
  P  P12  1  0.19968945  0.13533192  0.68618464  1
  P  P13  1  0.69968945  0.86466808  0.81381536  1
  P  P14  1  0.80031055  0.86466808  0.31381536  1
  P  P15  1  0.30031055  0.13533192  0.18618464  1
  O  O16  1  0.37990679  0.19605670  0.60245367  1
  O  O17  1  0.87990679  0.80394330  0.89754633  1
  O  O18  1  0.62009321  0.80394330  0.39754633  1
  O  O19  1  0.12009321  0.19605670  0.10245367  1
  O  O20  1  0.38270779  0.69723501  0.62888101  1
  O  O21  1  0.88270779  0.30276499  0.87111899  1
  O  O22  1  0.61729221  0.30276499  0.37111899  1
  O  O23  1  0.11729221  0.69723501  0.12888101  1
  O  O24  1  0.75942930  0.37812824  0.60540418  1
  O  O25  1  0.25942930  0.62187176  0.89459582  1
  O  O26  1  0.24057070  0.62187176  0.39459582  1
  O  O27  1  0.74057070  0.37812824  0.10540418  1
  O  O28  1  0.09756901  0.34113577  0.65850362  1
  O  O29  1  0.59756901  0.65886423  0.84149638  1
  O  O30  1  0.90243099  0.65886423  0.34149638  1
  O  O31  1  0.40243099  0.34113577  0.15850362  1
  O  O32  1  0.55051831  0.63720413  0.16526353  1
  O  O33  1  0.05051831  0.36279587  0.33473647  1
  O  O34  1  0.44948169  0.36279587  0.83473647  1
  O  O35  1  0.94948169  0.63720413  0.66526353  1
  O  O36  1  0.79138720  0.97213152  0.14183347  1
  O  O37  1  0.29138720  0.02786848  0.35816653  1
  O  O38  1  0.20861280  0.02786848  0.85816653  1
  O  O39  1  0.70861280  0.97213152  0.64183347  1
  O  O40  1  0.42005374  0.02363457  0.11550916  1
  O  O41  1  0.92005374  0.97636543  0.38449084  1
  O  O42  1  0.57994626  0.97636543  0.88449084  1
  O  O43  1  0.07994626  0.02363457  0.61550916  1
