# generated using pymatgen
data_TmAlAu
_symmetry_space_group_name_H-M   'P 1'
_cell_length_a   4.41474332
_cell_length_b   7.04228550
_cell_length_c   7.71312860
_cell_angle_alpha   90.00004732
_cell_angle_beta   90.00000000
_cell_angle_gamma   90.00000000
_symmetry_Int_Tables_number   1
_chemical_formula_structural   TmAlAu
_chemical_formula_sum   'Tm4 Al4 Au4'
_cell_volume   239.80026472
_cell_formula_units_Z   4
loop_
 _symmetry_equiv_pos_site_id
 _symmetry_equiv_pos_as_xyz
  1  'x, y, z'
loop_
 _atom_site_type_symbol
 _atom_site_label
 _atom_site_symmetry_multiplicity
 _atom_site_fract_x
 _atom_site_fract_y
 _atom_site_fract_z
 _atom_site_occupancy
  Tm  Tm0  1  0.25000000  0.00820753  0.30070625  1
  Tm  Tm1  1  0.25000000  0.50820753  0.19929375  1
  Tm  Tm2  1  0.75000000  0.99179247  0.69929375  1
  Tm  Tm3  1  0.75000000  0.49179247  0.80070625  1
  Al  Al4  1  0.25000000  0.17566245  0.92197140  1
  Al  Al5  1  0.25000000  0.67566245  0.57802860  1
  Al  Al6  1  0.75000000  0.82433755  0.07802860  1
  Al  Al7  1  0.75000000  0.32433755  0.42197140  1
  Au  Au8  1  0.25000000  0.28388243  0.59396289  1
  Au  Au9  1  0.25000000  0.78388243  0.90603711  1
  Au  Au10  1  0.75000000  0.71611757  0.40603711  1
  Au  Au11  1  0.75000000  0.21611757  0.09396289  1
