# generated using pymatgen
data_Nb5(CuSi)4
_symmetry_space_group_name_H-M   'P 1'
_cell_length_a   3.59804003
_cell_length_b   7.43295445
_cell_length_c   7.43295550
_cell_angle_alpha   86.64169389
_cell_angle_beta   75.99343761
_cell_angle_gamma   75.99344297
_symmetry_Int_Tables_number   1
_chemical_formula_structural   Nb5(CuSi)4
_chemical_formula_sum   'Nb5 Cu4 Si4'
_cell_volume   187.14250207
_cell_formula_units_Z   1
loop_
 _symmetry_equiv_pos_site_id
 _symmetry_equiv_pos_as_xyz
  1  'x, y, z'
loop_
 _atom_site_type_symbol
 _atom_site_label
 _atom_site_symmetry_multiplicity
 _atom_site_fract_x
 _atom_site_fract_y
 _atom_site_fract_z
 _atom_site_occupancy
  Nb  Nb0  1  0.50000000  0.00000000  -0.00000000  1
  Nb  Nb1  1  0.80410943  0.06591075  0.32586939  1
  Nb  Nb2  1  0.12997982  0.67413061  0.06591075  1
  Nb  Nb3  1  0.87002018  0.32586939  0.93408925  1
  Nb  Nb4  1  0.19589057  0.93408925  0.67413061  1
  Cu  Cu5  1  0.91938107  0.68422280  0.47701406  1
  Cu  Cu6  1  0.08061893  0.31577720  0.52298594  1
  Cu  Cu7  1  0.60360487  0.47701406  0.31577720  1
  Cu  Cu8  1  0.39639513  0.52298594  0.68422280  1
  Si  Si9  1  0.55822693  0.19581320  0.68773293  1
  Si  Si10  1  0.24595987  0.31226707  0.19581320  1
  Si  Si11  1  0.75404013  0.68773293  0.80418680  1
  Si  Si12  1  0.44177307  0.80418680  0.31226707  1
