# generated using pymatgen
data_Rb2NpO4
_symmetry_space_group_name_H-M   'P 1'
_cell_length_a   4.32126536
_cell_length_b   4.32127554
_cell_length_c   7.57958668
_cell_angle_alpha   106.55849316
_cell_angle_beta   106.55845787
_cell_angle_gamma   89.99787501
_symmetry_Int_Tables_number   1
_chemical_formula_structural   Rb2NpO4
_chemical_formula_sum   'Rb2 Np1 O4'
_cell_volume   129.53203788
_cell_formula_units_Z   1
loop_
 _symmetry_equiv_pos_site_id
 _symmetry_equiv_pos_as_xyz
  1  'x, y, z'
loop_
 _atom_site_type_symbol
 _atom_site_label
 _atom_site_symmetry_multiplicity
 _atom_site_fract_x
 _atom_site_fract_y
 _atom_site_fract_z
 _atom_site_occupancy
  Rb  Rb0  1  0.34654370  0.34654370  0.69308599  1
  Rb  Rb1  1  0.65345630  0.65345630  0.30691401  1
  Np  Np2  1  -0.00000000  -0.00000000  -0.00000000  1
  O  O3  1  0.13791406  0.13791406  0.27585476  1
  O  O4  1  0.86208594  0.86208594  0.72414524  1
  O  O5  1  -0.00000000  0.50000000  -0.00000000  1
  O  O6  1  0.50000000  -0.00000000  -0.00000000  1
