# generated using pymatgen
data_TbPS
_symmetry_space_group_name_H-M   'P 1'
_cell_length_a   5.34756347
_cell_length_b   5.38631092
_cell_length_c   16.75805173
_cell_angle_alpha   90.00000000
_cell_angle_beta   90.00000000
_cell_angle_gamma   90.00000000
_symmetry_Int_Tables_number   1
_chemical_formula_structural   TbPS
_chemical_formula_sum   'Tb8 P8 S8'
_cell_volume   482.69288099
_cell_formula_units_Z   8
loop_
 _symmetry_equiv_pos_site_id
 _symmetry_equiv_pos_as_xyz
  1  'x, y, z'
loop_
 _atom_site_type_symbol
 _atom_site_label
 _atom_site_symmetry_multiplicity
 _atom_site_fract_x
 _atom_site_fract_y
 _atom_site_fract_z
 _atom_site_occupancy
  Tb  Tb0  1  0.25000000  0.48358938  0.36191375  1
  Tb  Tb1  1  0.25000000  0.98358938  0.13808625  1
  Tb  Tb2  1  0.75000000  0.51641062  0.63808625  1
  Tb  Tb3  1  0.75000000  0.01641062  0.86191375  1
  Tb  Tb4  1  0.25000000  0.01467131  0.64685770  1
  Tb  Tb5  1  0.25000000  0.51467131  0.85314230  1
  Tb  Tb6  1  0.75000000  0.98532869  0.35314230  1
  Tb  Tb7  1  0.75000000  0.48532869  0.14685770  1
  P  P8  1  0.03997521  0.29685893  0.99721969  1
  P  P9  1  0.46002479  0.79685893  0.50278031  1
  P  P10  1  0.53997521  0.70314107  0.00278031  1
  P  P11  1  0.96002479  0.20314107  0.49721969  1
  P  P12  1  0.96002479  0.70314107  0.00278031  1
  P  P13  1  0.53997521  0.20314107  0.49721969  1
  P  P14  1  0.46002479  0.29685893  0.99721969  1
  P  P15  1  0.03997521  0.79685893  0.50278031  1
  S  S16  1  0.25000000  0.48496035  0.18887208  1
  S  S17  1  0.25000000  0.98496035  0.31112792  1
  S  S18  1  0.75000000  0.51503965  0.81112792  1
  S  S19  1  0.75000000  0.01503965  0.68887208  1
  S  S20  1  0.25000000  0.01094592  0.81608547  1
  S  S21  1  0.25000000  0.51094592  0.68391453  1
  S  S22  1  0.75000000  0.98905408  0.18391453  1
  S  S23  1  0.75000000  0.48905408  0.31608547  1
