# generated using pymatgen
data_Tb3In
_symmetry_space_group_name_H-M   'P 1'
_cell_length_a   6.86102286
_cell_length_b   6.86102235
_cell_length_c   5.63953288
_cell_angle_alpha   90.00000000
_cell_angle_beta   90.00000000
_cell_angle_gamma   119.99997971
_symmetry_Int_Tables_number   1
_chemical_formula_structural   Tb3In
_chemical_formula_sum   'Tb6 In2'
_cell_volume   229.90666096
_cell_formula_units_Z   2
loop_
 _symmetry_equiv_pos_site_id
 _symmetry_equiv_pos_as_xyz
  1  'x, y, z'
loop_
 _atom_site_type_symbol
 _atom_site_label
 _atom_site_symmetry_multiplicity
 _atom_site_fract_x
 _atom_site_fract_y
 _atom_site_fract_z
 _atom_site_occupancy
  Tb  Tb0  1  0.82817455  0.17182545  0.75000000  1
  Tb  Tb1  1  0.34365189  0.17182545  0.75000000  1
  Tb  Tb2  1  0.82817455  0.65634811  0.75000000  1
  Tb  Tb3  1  0.17182545  0.82817455  0.25000000  1
  Tb  Tb4  1  0.65634811  0.82817455  0.25000000  1
  Tb  Tb5  1  0.17182545  0.34365189  0.25000000  1
  In  In6  1  0.66666700  0.33333300  0.25000000  1
  In  In7  1  0.33333300  0.66666700  0.75000000  1
