# generated using pymatgen
data_Sr(As3Pt2)2
_symmetry_space_group_name_H-M   'P 1'
_cell_length_a   6.01784081
_cell_length_b   6.01784081
_cell_length_c   12.03799329
_cell_angle_alpha   89.33006438
_cell_angle_beta   89.33006438
_cell_angle_gamma   88.19257637
_symmetry_Int_Tables_number   1
_chemical_formula_structural   Sr(As3Pt2)2
_chemical_formula_sum   'Sr2 As12 Pt8'
_cell_volume   435.67415636
_cell_formula_units_Z   2
loop_
 _symmetry_equiv_pos_site_id
 _symmetry_equiv_pos_as_xyz
  1  'x, y, z'
loop_
 _atom_site_type_symbol
 _atom_site_label
 _atom_site_symmetry_multiplicity
 _atom_site_fract_x
 _atom_site_fract_y
 _atom_site_fract_z
 _atom_site_occupancy
  Sr  Sr0  1  0.59632981  0.40367019  0.25000000  1
  Sr  Sr1  1  0.40367019  0.59632981  0.75000000  1
  As  As2  1  0.86424122  0.90414501  0.69185953  1
  As  As3  1  0.09585499  0.13575878  0.80814047  1
  As  As4  1  0.13575878  0.09585499  0.30814047  1
  As  As5  1  0.90414501  0.86424122  0.19185953  1
  As  As6  1  0.11989879  0.37713793  0.05619239  1
  As  As7  1  0.62286207  0.88010121  0.44380761  1
  As  As8  1  0.88010121  0.62286207  0.94380761  1
  As  As9  1  0.37713793  0.11989879  0.55619239  1
  As  As10  1  0.61505261  0.12296486  0.94546679  1
  As  As11  1  0.87703514  0.38494739  0.55453321  1
  As  As12  1  0.12296486  0.61505261  0.44546679  1
  As  As13  1  0.38494739  0.87703514  0.05453321  1
  Pt  Pt14  1  0.07639666  0.49349034  0.25028395  1
  Pt  Pt15  1  0.50650966  0.92360334  0.24971605  1
  Pt  Pt16  1  0.50000000  0.50000000  0.50000000  1
  Pt  Pt17  1  0.50000000  0.50000000  -0.00000000  1
  Pt  Pt18  1  0.00000000  0.00000000  0.50000000  1
  Pt  Pt19  1  0.00000000  0.00000000  -0.00000000  1
  Pt  Pt20  1  0.49349034  0.07639666  0.75028395  1
  Pt  Pt21  1  0.92360334  0.50650966  0.74971605  1
