# generated using pymatgen
data_DyAgSe2
_symmetry_space_group_name_H-M   'P 1'
_cell_length_a   5.62727751
_cell_length_b   5.62727751
_cell_length_c   7.33581409
_cell_angle_alpha   112.55364011
_cell_angle_beta   112.55364011
_cell_angle_gamma   90.00000000
_symmetry_Int_Tables_number   1
_chemical_formula_structural   DyAgSe2
_chemical_formula_sum   'Dy2 Ag2 Se4'
_cell_volume   195.15520390
_cell_formula_units_Z   2
loop_
 _symmetry_equiv_pos_site_id
 _symmetry_equiv_pos_as_xyz
  1  'x, y, z'
loop_
 _atom_site_type_symbol
 _atom_site_label
 _atom_site_symmetry_multiplicity
 _atom_site_fract_x
 _atom_site_fract_y
 _atom_site_fract_z
 _atom_site_occupancy
  Dy  Dy0  1  0.25120486  0.75120486  0.50241173  1
  Dy  Dy1  1  0.00120486  0.00120486  0.00241173  1
  Ag  Ag2  1  0.79037926  0.29037926  0.58075851  1
  Ag  Ag3  1  0.54037926  0.54037926  0.08075851  1
  Se  Se4  1  0.48112227  0.98112227  0.96224553  1
  Se  Se5  1  0.23112227  0.23112227  0.46224553  1
  Se  Se6  1  0.01729261  0.51729261  0.03458423  1
  Se  Se7  1  0.76729261  0.76729261  0.53458423  1
