# generated using pymatgen
data_CeAl2Pd5
_symmetry_space_group_name_H-M   'P 1'
_cell_length_a   4.16311581
_cell_length_b   4.16311581
_cell_length_c   8.01919917
_cell_angle_alpha   105.04465143
_cell_angle_beta   105.04465143
_cell_angle_gamma   90.00000000
_symmetry_Int_Tables_number   1
_chemical_formula_structural   CeAl2Pd5
_chemical_formula_sum   'Ce1 Al2 Pd5'
_cell_volume   129.28184549
_cell_formula_units_Z   1
loop_
 _symmetry_equiv_pos_site_id
 _symmetry_equiv_pos_as_xyz
  1  'x, y, z'
loop_
 _atom_site_type_symbol
 _atom_site_label
 _atom_site_symmetry_multiplicity
 _atom_site_fract_x
 _atom_site_fract_y
 _atom_site_fract_z
 _atom_site_occupancy
  Ce  Ce0  1  0.50000000  0.50000000  -0.00000000  1
  Al  Al1  1  0.24656613  0.24656613  0.49313226  1
  Al  Al2  1  0.75343387  0.75343387  0.50686774  1
  Pd  Pd3  1  0.14595389  0.64595389  0.29190678  1
  Pd  Pd4  1  0.85404611  0.35404611  0.70809322  1
  Pd  Pd5  1  0.64595389  0.14595389  0.29190678  1
  Pd  Pd6  1  0.35404611  0.85404611  0.70809322  1
  Pd  Pd7  1  -0.00000000  -0.00000000  -0.00000000  1
