# generated using pymatgen
data_Nd(SiPt)2
_symmetry_space_group_name_H-M   'P 1'
_cell_length_a   4.25573408
_cell_length_b   4.25573305
_cell_length_c   9.83458754
_cell_angle_alpha   90.00000000
_cell_angle_beta   90.00000000
_cell_angle_gamma   90.00000000
_symmetry_Int_Tables_number   1
_chemical_formula_structural   Nd(SiPt)2
_chemical_formula_sum   'Nd2 Si4 Pt4'
_cell_volume   178.11685234
_cell_formula_units_Z   2
loop_
 _symmetry_equiv_pos_site_id
 _symmetry_equiv_pos_as_xyz
  1  'x, y, z'
loop_
 _atom_site_type_symbol
 _atom_site_label
 _atom_site_symmetry_multiplicity
 _atom_site_fract_x
 _atom_site_fract_y
 _atom_site_fract_z
 _atom_site_occupancy
  Nd  Nd0  1  0.75000000  0.75000000  0.25588579  1
  Nd  Nd1  1  0.25000000  0.25000000  0.74411421  1
  Si  Si2  1  0.75000000  0.25000000  0.50000000  1
  Si  Si3  1  0.25000000  0.75000000  0.50000000  1
  Si  Si4  1  0.75000000  0.75000000  0.86936534  1
  Si  Si5  1  0.25000000  0.25000000  0.13063466  1
  Pt  Pt6  1  0.75000000  0.25000000  0.00000000  1
  Pt  Pt7  1  0.25000000  0.75000000  -0.00000000  1
  Pt  Pt8  1  0.75000000  0.75000000  0.62126587  1
  Pt  Pt9  1  0.25000000  0.25000000  0.37873413  1
