# generated using pymatgen
data_KTb3F10
_symmetry_space_group_name_H-M   'P 1'
_cell_length_a   8.18520648
_cell_length_b   8.18509304
_cell_length_c   8.18514167
_cell_angle_alpha   60.00001795
_cell_angle_beta   60.00042634
_cell_angle_gamma   59.99999843
_symmetry_Int_Tables_number   1
_chemical_formula_structural   KTb3F10
_chemical_formula_sum   'K2 Tb6 F20'
_cell_volume   387.76259693
_cell_formula_units_Z   2
loop_
 _symmetry_equiv_pos_site_id
 _symmetry_equiv_pos_as_xyz
  1  'x, y, z'
loop_
 _atom_site_type_symbol
 _atom_site_label
 _atom_site_symmetry_multiplicity
 _atom_site_fract_x
 _atom_site_fract_y
 _atom_site_fract_z
 _atom_site_occupancy
  K  K0  1  0.25004784  0.24998465  0.24998349  1
  K  K1  1  0.74995353  0.75001894  0.75001544  1
  Tb  Tb2  1  0.76006148  0.76013183  0.23990691  1
  Tb  Tb3  1  0.76007052  0.23989090  0.23991743  1
  Tb  Tb4  1  0.23992929  0.76010909  0.76008274  1
  Tb  Tb5  1  0.23992439  0.76010667  0.23988339  1
  Tb  Tb6  1  0.23993820  0.23986828  0.76009302  1
  Tb  Tb7  1  0.76007451  0.23989409  0.76011773  1
  F  F8  1  0.88781547  0.88789460  0.88786787  1
  F  F9  1  0.66344280  0.11217319  0.11219522  1
  F  F10  1  0.11219354  0.11211283  0.66356153  1
  F  F11  1  0.11216237  0.66362676  0.11210908  1
  F  F12  1  0.88780643  0.88788735  0.33643867  1
  F  F13  1  0.88783735  0.33637292  0.88789122  1
  F  F14  1  0.33655696  0.88782672  0.88780481  1
  F  F15  1  0.11218501  0.11210525  0.11213231  1
  F  F16  1  0.50001738  0.16782338  0.50001684  1
  F  F17  1  0.16802365  0.49994265  0.49994337  1
  F  F18  1  0.50002625  0.16782812  0.83211860  1
  F  F19  1  0.83196984  0.50005106  0.16792774  1
  F  F20  1  0.16802955  0.49994876  0.83207229  1
  F  F21  1  0.49999163  0.49999154  0.16789324  1
  F  F22  1  0.83199372  0.16786529  0.50006950  1
  F  F23  1  0.49997357  0.83217174  0.16788154  1
  F  F24  1  0.50000992  0.50000717  0.83210741  1
  F  F25  1  0.16800651  0.83213489  0.49992887  1
  F  F26  1  0.83197538  0.50005733  0.50005670  1
  F  F27  1  0.49998288  0.83217698  0.49998303  1
