# generated using pymatgen
data_YGaPd
_symmetry_space_group_name_H-M   'P 1'
_cell_length_a   4.46150114
_cell_length_b   6.99676310
_cell_length_c   7.53651019
_cell_angle_alpha   90.00002401
_cell_angle_beta   90.00000000
_cell_angle_gamma   90.00000000
_symmetry_Int_Tables_number   1
_chemical_formula_structural   YGaPd
_chemical_formula_sum   'Y4 Ga4 Pd4'
_cell_volume   235.26020362
_cell_formula_units_Z   4
loop_
 _symmetry_equiv_pos_site_id
 _symmetry_equiv_pos_as_xyz
  1  'x, y, z'
loop_
 _atom_site_type_symbol
 _atom_site_label
 _atom_site_symmetry_multiplicity
 _atom_site_fract_x
 _atom_site_fract_y
 _atom_site_fract_z
 _atom_site_occupancy
  Y  Y0  1  0.25000000  0.98511961  0.29897726  1
  Y  Y1  1  0.25000000  0.48511961  0.20102174  1
  Y  Y2  1  0.75000000  0.01488039  0.70102274  1
  Y  Y3  1  0.75000000  0.51488039  0.79897826  1
  Ga  Ga4  1  0.25000000  0.31817773  0.57924289  1
  Ga  Ga5  1  0.25000000  0.81817773  0.92075711  1
  Ga  Ga6  1  0.75000000  0.68182227  0.42075711  1
  Ga  Ga7  1  0.75000000  0.18182227  0.07924289  1
  Pd  Pd8  1  0.25000000  0.21109234  0.90749315  1
  Pd  Pd9  1  0.25000000  0.71109234  0.59250585  1
  Pd  Pd10  1  0.75000000  0.78890766  0.09250685  1
  Pd  Pd11  1  0.75000000  0.28890766  0.40749415  1
