# generated using pymatgen
data_Lu3Th
_symmetry_space_group_name_H-M   'P 1'
_cell_length_a   7.07703699
_cell_length_b   7.07703699
_cell_length_c   5.63871466
_cell_angle_alpha   90.00000000
_cell_angle_beta   90.00000000
_cell_angle_gamma   120.00000307
_symmetry_Int_Tables_number   1
_chemical_formula_structural   Lu3Th
_chemical_formula_sum   'Lu6 Th2'
_cell_volume   244.57590398
_cell_formula_units_Z   2
loop_
 _symmetry_equiv_pos_site_id
 _symmetry_equiv_pos_as_xyz
  1  'x, y, z'
loop_
 _atom_site_type_symbol
 _atom_site_label
 _atom_site_symmetry_multiplicity
 _atom_site_fract_x
 _atom_site_fract_y
 _atom_site_fract_z
 _atom_site_occupancy
  Lu  Lu0  1  0.16606150  0.33212400  0.25000000  1
  Lu  Lu1  1  0.66787600  0.83393850  0.25000000  1
  Lu  Lu2  1  0.16606150  0.83393850  0.25000000  1
  Lu  Lu3  1  0.83393850  0.66787600  0.75000000  1
  Lu  Lu4  1  0.33212400  0.16606150  0.75000000  1
  Lu  Lu5  1  0.83393850  0.16606150  0.75000000  1
  Th  Th6  1  0.33333300  0.66666700  0.75000000  1
  Th  Th7  1  0.66666700  0.33333300  0.25000000  1
