# generated using pymatgen
data_Nd(BOs)4
_symmetry_space_group_name_H-M   'P 1'
_cell_length_a   3.99558915
_cell_length_b   7.59842679
_cell_length_c   7.59842679
_cell_angle_alpha   90.00000000
_cell_angle_beta   90.00000000
_cell_angle_gamma   90.00000000
_symmetry_Int_Tables_number   1
_chemical_formula_structural   Nd(BOs)4
_chemical_formula_sum   'Nd2 B8 Os8'
_cell_volume   230.68969350
_cell_formula_units_Z   2
loop_
 _symmetry_equiv_pos_site_id
 _symmetry_equiv_pos_as_xyz
  1  'x, y, z'
loop_
 _atom_site_type_symbol
 _atom_site_label
 _atom_site_symmetry_multiplicity
 _atom_site_fract_x
 _atom_site_fract_y
 _atom_site_fract_z
 _atom_site_occupancy
  Nd  Nd0  1  0.25000000  0.75000000  0.75000000  1
  Nd  Nd1  1  0.75000000  0.25000000  0.25000000  1
  B  B2  1  0.86004123  0.03162160  0.91419055  1
  B  B3  1  0.13995877  0.53162160  0.41419055  1
  B  B4  1  0.36004123  0.08580945  0.53162160  1
  B  B5  1  0.36004123  0.41419055  0.96837840  1
  B  B6  1  0.86004123  0.46837840  0.58580945  1
  B  B7  1  0.13995877  0.96837840  0.08580945  1
  B  B8  1  0.63995877  0.91419055  0.46837840  1
  B  B9  1  0.63995877  0.58580945  0.03162160  1
  Os  Os10  1  0.36125537  0.35644276  0.60399290  1
  Os  Os11  1  0.36125537  0.14355724  0.89600710  1
  Os  Os12  1  0.86125537  0.39600710  0.85644276  1
  Os  Os13  1  0.13874463  0.89600710  0.35644276  1
  Os  Os14  1  0.63874463  0.64355724  0.39600710  1
  Os  Os15  1  0.63874463  0.85644276  0.10399290  1
  Os  Os16  1  0.13874463  0.60399290  0.14355724  1
  Os  Os17  1  0.86125537  0.10399290  0.64355724  1
