# generated using pymatgen
data_Cs4U3Si4O17
_symmetry_space_group_name_H-M   'P 1'
_cell_length_a   6.92534055
_cell_length_b   6.92534055
_cell_length_c   11.90390218
_cell_angle_alpha   75.40900310
_cell_angle_beta   75.40900310
_cell_angle_gamma   66.05235386
_symmetry_Int_Tables_number   1
_chemical_formula_structural   Cs4U3Si4O17
_chemical_formula_sum   'Cs4 U3 Si4 O17'
_cell_volume   497.65932370
_cell_formula_units_Z   1
loop_
 _symmetry_equiv_pos_site_id
 _symmetry_equiv_pos_as_xyz
  1  'x, y, z'
loop_
 _atom_site_type_symbol
 _atom_site_label
 _atom_site_symmetry_multiplicity
 _atom_site_fract_x
 _atom_site_fract_y
 _atom_site_fract_z
 _atom_site_occupancy
  Cs  Cs0  1  0.81935060  0.81935060  0.51715144  1
  Cs  Cs1  1  0.18064940  0.18064940  0.48284856  1
  Cs  Cs2  1  0.85040323  0.85040323  0.92235038  1
  Cs  Cs3  1  0.14959677  0.14959677  0.07764962  1
  U  U4  1  0.45026560  0.45026560  0.68610869  1
  U  U5  1  0.54973440  0.54973440  0.31389131  1
  U  U6  1  0.50000000  0.50000000  -0.00000000  1
  Si  Si7  1  0.95448127  0.36687029  0.76648799  1
  Si  Si8  1  0.36687029  0.95448127  0.76648799  1
  Si  Si9  1  0.04551873  0.63312971  0.23351201  1
  Si  Si10  1  0.63312971  0.04551873  0.23351201  1
  O  O11  1  0.82688240  0.42154659  0.89596698  1
  O  O12  1  0.42154659  0.82688240  0.89596698  1
  O  O13  1  0.17311760  0.57845341  0.10403302  1
  O  O14  1  0.57845341  0.17311760  0.10403302  1
  O  O15  1  0.10232329  0.50948088  0.70292837  1
  O  O16  1  0.50948088  0.10232329  0.70292837  1
  O  O17  1  0.89767671  0.49051912  0.29707163  1
  O  O18  1  0.49051912  0.89767671  0.29707163  1
  O  O19  1  0.79206202  0.39195397  0.68146524  1
  O  O20  1  0.39195397  0.79206202  0.68146524  1
  O  O21  1  0.20793798  0.60804603  0.31853476  1
  O  O22  1  0.60804603  0.20793798  0.31853476  1
  O  O23  1  0.11329162  0.11329162  0.78530676  1
  O  O24  1  0.88670838  0.88670838  0.21469324  1
  O  O25  1  0.40754290  0.40754290  0.87787690  1
  O  O26  1  0.59245710  0.59245710  0.12212310  1
  O  O27  1  0.50000000  0.50000000  0.50000000  1
