# generated using pymatgen
data_Ba2ZnBi2
_symmetry_space_group_name_H-M   'P 1'
_cell_length_a   8.89799517
_cell_length_b   8.89799517
_cell_length_c   8.89799517
_cell_angle_alpha   132.43457595
_cell_angle_beta   131.01731911
_cell_angle_gamma   70.66839065
_symmetry_Int_Tables_number   1
_chemical_formula_structural   Ba2ZnBi2
_chemical_formula_sum   'Ba4 Zn2 Bi4'
_cell_volume   384.32106671
_cell_formula_units_Z   2
loop_
 _symmetry_equiv_pos_site_id
 _symmetry_equiv_pos_as_xyz
  1  'x, y, z'
loop_
 _atom_site_type_symbol
 _atom_site_label
 _atom_site_symmetry_multiplicity
 _atom_site_fract_x
 _atom_site_fract_y
 _atom_site_fract_z
 _atom_site_occupancy
  Ba  Ba0  1  0.07298054  0.86504583  0.20793472  1
  Ba  Ba1  1  0.92701946  0.13495417  0.79206528  1
  Ba  Ba2  1  0.34288889  0.63495417  0.70793472  1
  Ba  Ba3  1  0.65711111  0.36504583  0.29206528  1
  Zn  Zn4  1  0.50000000  0.75000000  0.25000000  1
  Zn  Zn5  1  0.50000000  0.25000000  0.75000000  1
  Bi  Bi6  1  0.82123259  0.61274502  0.20848756  1
  Bi  Bi7  1  0.17876741  0.38725498  0.79151244  1
  Bi  Bi8  1  0.59574154  0.88725498  0.70848756  1
  Bi  Bi9  1  0.40425846  0.11274502  0.29151244  1
