# generated using pymatgen
data_YbNi
_symmetry_space_group_name_H-M   'P 1'
_cell_length_a   4.03076342
_cell_length_b   5.31737717
_cell_length_c   6.92616242
_cell_angle_alpha   90.00000000
_cell_angle_beta   90.00000000
_cell_angle_gamma   90.00000000
_symmetry_Int_Tables_number   1
_chemical_formula_structural   YbNi
_chemical_formula_sum   'Yb4 Ni4'
_cell_volume   148.44905824
_cell_formula_units_Z   4
loop_
 _symmetry_equiv_pos_site_id
 _symmetry_equiv_pos_as_xyz
  1  'x, y, z'
loop_
 _atom_site_type_symbol
 _atom_site_label
 _atom_site_symmetry_multiplicity
 _atom_site_fract_x
 _atom_site_fract_y
 _atom_site_fract_z
 _atom_site_occupancy
  Yb  Yb0  1  0.25000000  0.36739199  0.67984466  1
  Yb  Yb1  1  0.25000000  0.13260801  0.17984466  1
  Yb  Yb2  1  0.75000000  0.63260801  0.32015534  1
  Yb  Yb3  1  0.75000000  0.86739199  0.82015534  1
  Ni  Ni4  1  0.25000000  0.87459062  0.53481317  1
  Ni  Ni5  1  0.25000000  0.62540938  0.03481317  1
  Ni  Ni6  1  0.75000000  0.12540938  0.46518683  1
  Ni  Ni7  1  0.75000000  0.37459062  0.96518683  1
