# generated using pymatgen
data_ZrVMo
_symmetry_space_group_name_H-M   'P 1'
_cell_length_a   5.27589121
_cell_length_b   5.27589121
_cell_length_c   5.27589121
_cell_angle_alpha   120.52621019
_cell_angle_beta   119.03179705
_cell_angle_gamma   90.38804476
_symmetry_Int_Tables_number   1
_chemical_formula_structural   ZrVMo
_chemical_formula_sum   'Zr2 V2 Mo2'
_cell_volume   104.16418416
_cell_formula_units_Z   2
loop_
 _symmetry_equiv_pos_site_id
 _symmetry_equiv_pos_as_xyz
  1  'x, y, z'
loop_
 _atom_site_type_symbol
 _atom_site_label
 _atom_site_symmetry_multiplicity
 _atom_site_fract_x
 _atom_site_fract_y
 _atom_site_fract_z
 _atom_site_occupancy
  Zr  Zr0  1  0.37521998  0.12521998  0.25000000  1
  Zr  Zr1  1  0.62478002  0.87478002  0.75000000  1
  V  V2  1  0.50000000  0.50000000  -0.00000000  1
  V  V3  1  0.00000000  0.50000000  0.50000000  1
  Mo  Mo4  1  0.00000000  0.50000000  -0.00000000  1
  Mo  Mo5  1  0.00000000  0.00000000  0.50000000  1
