# generated using pymatgen
data_ThSi2Ni
_symmetry_space_group_name_H-M   'P 1'
_cell_length_a   4.08856079
_cell_length_b   4.14357099
_cell_length_c   8.44114890
_cell_angle_alpha   104.20776009
_cell_angle_beta   90.00000000
_cell_angle_gamma   90.00000000
_symmetry_Int_Tables_number   1
_chemical_formula_structural   ThSi2Ni
_chemical_formula_sum   'Th2 Si4 Ni2'
_cell_volume   138.62936947
_cell_formula_units_Z   2
loop_
 _symmetry_equiv_pos_site_id
 _symmetry_equiv_pos_as_xyz
  1  'x, y, z'
loop_
 _atom_site_type_symbol
 _atom_site_label
 _atom_site_symmetry_multiplicity
 _atom_site_fract_x
 _atom_site_fract_y
 _atom_site_fract_z
 _atom_site_occupancy
  Th  Th0  1  0.25000000  0.39358152  0.78716405  1
  Th  Th1  1  0.75000000  0.60641848  0.21283595  1
  Si  Si2  1  0.25000000  0.03943533  0.07887367  1
  Si  Si3  1  0.75000000  0.96056467  0.92112633  1
  Si  Si4  1  0.25000000  0.74905201  0.49810602  1
  Si  Si5  1  0.75000000  0.25094799  0.50189398  1
  Ni  Ni6  1  0.25000000  0.18073221  0.36146541  1
  Ni  Ni7  1  0.75000000  0.81926779  0.63853459  1
