# generated using pymatgen
data_InPb
_symmetry_space_group_name_H-M   'P 1'
_cell_length_a   3.38857208
_cell_length_b   3.38857208
_cell_length_c   5.99168813
_cell_angle_alpha   79.28111198
_cell_angle_beta   79.28111198
_cell_angle_gamma   61.37883280
_symmetry_Int_Tables_number   1
_chemical_formula_structural   InPb
_chemical_formula_sum   'In1 Pb1'
_cell_volume   58.96283227
_cell_formula_units_Z   1
loop_
 _symmetry_equiv_pos_site_id
 _symmetry_equiv_pos_as_xyz
  1  'x, y, z'
loop_
 _atom_site_type_symbol
 _atom_site_label
 _atom_site_symmetry_multiplicity
 _atom_site_fract_x
 _atom_site_fract_y
 _atom_site_fract_z
 _atom_site_occupancy
  In  In0  1  0.67186606  0.67186606  0.24565062  1
  Pb  Pb1  1  0.32812594  0.32812594  0.75434838  1
