# generated using pymatgen
data_K2YF5
_symmetry_space_group_name_H-M   'P 1'
_cell_length_a   6.54564623
_cell_length_b   7.23925874
_cell_length_c   10.70124385
_cell_angle_alpha   90.00000000
_cell_angle_beta   90.00000000
_cell_angle_gamma   90.00000000
_symmetry_Int_Tables_number   1
_chemical_formula_structural   K2YF5
_chemical_formula_sum   'K8 Y4 F20'
_cell_volume   507.08514608
_cell_formula_units_Z   4
loop_
 _symmetry_equiv_pos_site_id
 _symmetry_equiv_pos_as_xyz
  1  'x, y, z'
loop_
 _atom_site_type_symbol
 _atom_site_label
 _atom_site_symmetry_multiplicity
 _atom_site_fract_x
 _atom_site_fract_y
 _atom_site_fract_z
 _atom_site_occupancy
  K  K0  1  0.96522424  0.50290207  0.67100704  1
  K  K1  1  0.03477576  0.00290207  0.32899296  1
  K  K2  1  0.53477576  0.50290207  0.17100704  1
  K  K3  1  0.46522424  0.00290207  0.82899296  1
  K  K4  1  0.96522424  0.99709793  0.67100704  1
  K  K5  1  0.03477576  0.49709793  0.32899296  1
  K  K6  1  0.53477576  0.99709793  0.17100704  1
  K  K7  1  0.46522424  0.49709793  0.82899296  1
  Y  Y8  1  0.93467521  0.25000000  0.99694637  1
  Y  Y9  1  0.06532479  0.75000000  0.00305363  1
  Y  Y10  1  0.56532479  0.25000000  0.49694637  1
  Y  Y11  1  0.43467521  0.75000000  0.50305363  1
  F  F12  1  0.85109344  0.53514045  0.92354488  1
  F  F13  1  0.14890656  0.03514045  0.07645512  1
  F  F14  1  0.64890656  0.53514045  0.42354488  1
  F  F15  1  0.35109344  0.03514045  0.57645512  1
  F  F16  1  0.85109344  0.96485955  0.92354488  1
  F  F17  1  0.14890656  0.46485955  0.07645512  1
  F  F18  1  0.64890656  0.96485955  0.42354488  1
  F  F19  1  0.35109344  0.46485955  0.57645512  1
  F  F20  1  0.63133989  0.75000000  0.66825577  1
  F  F21  1  0.36866011  0.25000000  0.33174423  1
  F  F22  1  0.86866011  0.75000000  0.16825577  1
  F  F23  1  0.13133989  0.25000000  0.83174423  1
  F  F24  1  0.10091361  0.75000000  0.51237980  1
  F  F25  1  0.89908639  0.25000000  0.48762020  1
  F  F26  1  0.39908639  0.75000000  0.01237980  1
  F  F27  1  0.60091361  0.25000000  0.98762020  1
  F  F28  1  0.16323786  0.75000000  0.80590755  1
  F  F29  1  0.83676214  0.25000000  0.19409245  1
  F  F30  1  0.33676214  0.75000000  0.30590755  1
  F  F31  1  0.66323786  0.25000000  0.69409245  1
