# generated using pymatgen
data_YGa2Pd
_symmetry_space_group_name_H-M   'P 1'
_cell_length_a   5.52129668
_cell_length_b   5.52129668
_cell_length_c   6.56114633
_cell_angle_alpha   90.00000000
_cell_angle_beta   90.00000000
_cell_angle_gamma   132.91321964
_symmetry_Int_Tables_number   1
_chemical_formula_structural   YGa2Pd
_chemical_formula_sum   'Y2 Ga4 Pd2'
_cell_volume   146.48792211
_cell_formula_units_Z   2
loop_
 _symmetry_equiv_pos_site_id
 _symmetry_equiv_pos_as_xyz
  1  'x, y, z'
loop_
 _atom_site_type_symbol
 _atom_site_label
 _atom_site_symmetry_multiplicity
 _atom_site_fract_x
 _atom_site_fract_y
 _atom_site_fract_z
 _atom_site_occupancy
  Y  Y0  1  0.58847529  0.41152471  0.25000000  1
  Y  Y1  1  0.41152471  0.58847529  0.75000000  1
  Ga  Ga2  1  0.87263862  0.12736138  0.44483931  1
  Ga  Ga3  1  0.12736138  0.87263862  0.55516069  1
  Ga  Ga4  1  0.87263862  0.12736138  0.05516069  1
  Ga  Ga5  1  0.12736138  0.87263862  0.94483931  1
  Pd  Pd6  1  0.29876054  0.70123946  0.25000000  1
  Pd  Pd7  1  0.70123946  0.29876054  0.75000000  1
