# generated using pymatgen
data_Ce4S3O4
_symmetry_space_group_name_H-M   'P 1'
_cell_length_a   3.95007356
_cell_length_b   6.84545541
_cell_length_c   14.74541270
_cell_angle_alpha   89.99698675
_cell_angle_beta   90.00319948
_cell_angle_gamma   89.99565844
_symmetry_Int_Tables_number   1
_chemical_formula_structural   Ce4S3O4
_chemical_formula_sum   'Ce8 S6 O8'
_cell_volume   398.71673043
_cell_formula_units_Z   2
loop_
 _symmetry_equiv_pos_site_id
 _symmetry_equiv_pos_as_xyz
  1  'x, y, z'
loop_
 _atom_site_type_symbol
 _atom_site_label
 _atom_site_symmetry_multiplicity
 _atom_site_fract_x
 _atom_site_fract_y
 _atom_site_fract_z
 _atom_site_occupancy
  Ce  Ce0  1  0.50007987  0.29290635  0.65838480  1
  Ce  Ce1  1  0.49982467  0.70715369  0.34152729  1
  Ce  Ce2  1  0.49962614  0.79292118  0.84154984  1
  Ce  Ce3  1  0.50033303  0.20711043  0.15855958  1
  Ce  Ce4  1  0.00015801  0.21765773  0.92309751  1
  Ce  Ce5  1  -0.00014731  0.78235634  0.07701992  1
  Ce  Ce6  1  -0.00004562  0.71768735  0.57687064  1
  Ce  Ce7  1  0.00006841  0.28237461  0.42298267  1
  S  S8  1  -0.00003420  0.00639953  0.28053697  1
  S  S9  1  0.00003268  0.99353981  0.71944774  1
  S  S10  1  -0.00000367  0.50642211  0.21960368  1
  S  S11  1  0.00001148  0.49352945  0.78047613  1
  S  S12  1  0.49999908  -0.00000979  0.49983615  1
  S  S13  1  0.50000051  0.49999387  0.00010788  1
  O  O14  1  0.50014436  0.11935577  0.87719752  1
  O  O15  1  0.49987166  0.88060663  0.12295819  1
  O  O16  1  0.49996367  0.61929068  0.62270561  1
  O  O17  1  0.50005814  0.38074403  0.37716274  1
  O  O18  1  -0.00003916  0.36113239  0.57158732  1
  O  O19  1  0.00008167  0.63885220  0.42826588  1
  O  O20  1  0.00024005  0.86119289  0.92838335  1
  O  O21  1  -0.00022349  0.13878275  0.07173857  1
