# generated using pymatgen
data_Eu4As2O
_symmetry_space_group_name_H-M   'P 1'
_cell_length_a   8.68742890
_cell_length_b   8.68742890
_cell_length_c   8.68742890
_cell_angle_alpha   148.22128483
_cell_angle_beta   148.22128483
_cell_angle_gamma   45.55881066
_symmetry_Int_Tables_number   1
_chemical_formula_structural   Eu4As2O
_chemical_formula_sum   'Eu4 As2 O1'
_cell_volume   181.24710851
_cell_formula_units_Z   1
loop_
 _symmetry_equiv_pos_site_id
 _symmetry_equiv_pos_as_xyz
  1  'x, y, z'
loop_
 _atom_site_type_symbol
 _atom_site_label
 _atom_site_symmetry_multiplicity
 _atom_site_fract_x
 _atom_site_fract_y
 _atom_site_fract_z
 _atom_site_occupancy
  Eu  Eu0  1  0.00000000  0.50000000  0.50000000  1
  Eu  Eu1  1  0.50000000  0.00000000  0.50000000  1
  Eu  Eu2  1  0.67388376  0.67388376  -0.00000000  1
  Eu  Eu3  1  0.32611624  0.32611624  0.00000000  1
  As  As4  1  0.86468459  0.86468459  0.00000000  1
  As  As5  1  0.13531541  0.13531541  -0.00000000  1
  O  O6  1  0.50000000  0.50000000  -0.00000000  1
