# generated using pymatgen
data_Zr2SeN2
_symmetry_space_group_name_H-M   'P 1'
_cell_length_a   3.65353277
_cell_length_b   3.65353277
_cell_length_c   13.26209006
_cell_angle_alpha   90.00000000
_cell_angle_beta   90.00000000
_cell_angle_gamma   119.99998606
_symmetry_Int_Tables_number   1
_chemical_formula_structural   Zr2SeN2
_chemical_formula_sum   'Zr4 Se2 N4'
_cell_volume   153.30936316
_cell_formula_units_Z   2
loop_
 _symmetry_equiv_pos_site_id
 _symmetry_equiv_pos_as_xyz
  1  'x, y, z'
loop_
 _atom_site_type_symbol
 _atom_site_label
 _atom_site_symmetry_multiplicity
 _atom_site_fract_x
 _atom_site_fract_y
 _atom_site_fract_z
 _atom_site_occupancy
  Zr  Zr0  1  0.33333300  0.66666700  0.59822980  1
  Zr  Zr1  1  0.66666700  0.33333300  0.40177020  1
  Zr  Zr2  1  0.66666700  0.33333300  0.09822980  1
  Zr  Zr3  1  0.33333300  0.66666700  0.90177020  1
  Se  Se4  1  -0.00000000  -0.00000000  0.25000000  1
  Se  Se5  1  -0.00000000  -0.00000000  0.75000000  1
  N  N6  1  0.33333300  0.66666700  0.43410139  1
  N  N7  1  0.66666700  0.33333300  0.56589861  1
  N  N8  1  0.66666700  0.33333300  0.93410139  1
  N  N9  1  0.33333300  0.66666700  0.06589861  1
