# generated using pymatgen
data_Tm3Tl
_symmetry_space_group_name_H-M   'P 1'
_cell_length_a   6.73122550
_cell_length_b   6.73122640
_cell_length_c   5.55450311
_cell_angle_alpha   90.00000000
_cell_angle_beta   90.00000000
_cell_angle_gamma   119.99995289
_symmetry_Int_Tables_number   1
_chemical_formula_structural   Tm3Tl
_chemical_formula_sum   'Tm6 Tl2'
_cell_volume   217.95377207
_cell_formula_units_Z   2
loop_
 _symmetry_equiv_pos_site_id
 _symmetry_equiv_pos_as_xyz
  1  'x, y, z'
loop_
 _atom_site_type_symbol
 _atom_site_label
 _atom_site_symmetry_multiplicity
 _atom_site_fract_x
 _atom_site_fract_y
 _atom_site_fract_z
 _atom_site_occupancy
  Tm  Tm0  1  0.16945140  0.33890280  0.25000000  1
  Tm  Tm1  1  0.66109720  0.83054860  0.25000000  1
  Tm  Tm2  1  0.16945040  0.83054860  0.25000000  1
  Tm  Tm3  1  0.83054860  0.66109720  0.75000000  1
  Tm  Tm4  1  0.33890280  0.16945140  0.75000000  1
  Tm  Tm5  1  0.83054960  0.16945140  0.75000000  1
  Tl  Tl6  1  0.33333300  0.66666700  0.75000000  1
  Tl  Tl7  1  0.66666700  0.33333300  0.25000000  1
