# generated using pymatgen
data_Zr6CoSn2
_symmetry_space_group_name_H-M   'P 1'
_cell_length_a   7.97975890
_cell_length_b   7.97975890
_cell_length_c   3.49569417
_cell_angle_alpha   90.00000000
_cell_angle_beta   90.00000000
_cell_angle_gamma   119.99999406
_symmetry_Int_Tables_number   1
_chemical_formula_structural   Zr6CoSn2
_chemical_formula_sum   'Zr6 Co1 Sn2'
_cell_volume   192.77185563
_cell_formula_units_Z   1
loop_
 _symmetry_equiv_pos_site_id
 _symmetry_equiv_pos_as_xyz
  1  'x, y, z'
loop_
 _atom_site_type_symbol
 _atom_site_label
 _atom_site_symmetry_multiplicity
 _atom_site_fract_x
 _atom_site_fract_y
 _atom_site_fract_z
 _atom_site_occupancy
  Zr  Zr0  1  0.23963736  0.00000000  0.50000000  1
  Zr  Zr1  1  0.00000000  0.23963736  0.50000000  1
  Zr  Zr2  1  0.76036264  0.76036264  0.50000000  1
  Zr  Zr3  1  0.60299866  0.00000000  -0.00000000  1
  Zr  Zr4  1  0.00000000  0.60299866  -0.00000000  1
  Zr  Zr5  1  0.39700134  0.39700134  0.00000000  1
  Co  Co6  1  0.00000000  -0.00000000  0.00000000  1
  Sn  Sn7  1  0.33333300  0.66666700  0.50000000  1
  Sn  Sn8  1  0.66666700  0.33333300  0.50000000  1
