# generated using pymatgen
data_BaCdPb
_symmetry_space_group_name_H-M   'P 1'
_cell_length_a   6.71415681
_cell_length_b   6.71415681
_cell_length_c   8.63034368
_cell_angle_alpha   50.37074037
_cell_angle_beta   50.37074037
_cell_angle_gamma   46.53908807
_symmetry_Int_Tables_number   1
_chemical_formula_structural   BaCdPb
_chemical_formula_sum   'Ba2 Cd2 Pb2'
_cell_volume   203.23607161
_cell_formula_units_Z   2
loop_
 _symmetry_equiv_pos_site_id
 _symmetry_equiv_pos_as_xyz
  1  'x, y, z'
loop_
 _atom_site_type_symbol
 _atom_site_label
 _atom_site_symmetry_multiplicity
 _atom_site_fract_x
 _atom_site_fract_y
 _atom_site_fract_z
 _atom_site_occupancy
  Ba  Ba0  1  0.54254102  0.54254102  0.20657511  1
  Ba  Ba1  1  0.45745898  0.45745898  0.79342489  1
  Cd  Cd2  1  0.15570089  0.15570089  0.40298017  1
  Cd  Cd3  1  0.84429911  0.84429911  0.59701983  1
  Pb  Pb4  1  0.83508200  0.83508200  0.22955292  1
  Pb  Pb5  1  0.16491800  0.16491800  0.77044708  1
