# generated using pymatgen
data_Er3CrS6
_symmetry_space_group_name_H-M   'P 1'
_cell_length_a   3.72808102
_cell_length_b   13.18405806
_cell_length_c   15.86117842
_cell_angle_alpha   90.00000000
_cell_angle_beta   90.00000000
_cell_angle_gamma   90.00000000
_symmetry_Int_Tables_number   1
_chemical_formula_structural   Er3CrS6
_chemical_formula_sum   'Er12 Cr4 S24'
_cell_volume   779.59653359
_cell_formula_units_Z   4
loop_
 _symmetry_equiv_pos_site_id
 _symmetry_equiv_pos_as_xyz
  1  'x, y, z'
loop_
 _atom_site_type_symbol
 _atom_site_label
 _atom_site_symmetry_multiplicity
 _atom_site_fract_x
 _atom_site_fract_y
 _atom_site_fract_z
 _atom_site_occupancy
  Er  Er0  1  -0.00000000  0.24424999  0.59944133  1
  Er  Er1  1  0.00000000  0.75575001  0.40055867  1
  Er  Er2  1  0.50000000  0.74424999  0.90055867  1
  Er  Er3  1  0.50000000  0.25575001  0.09944133  1
  Er  Er4  1  0.50000000  0.18240259  0.85272365  1
  Er  Er5  1  0.50000000  0.81759741  0.14727635  1
  Er  Er6  1  -0.00000000  0.68240259  0.64727635  1
  Er  Er7  1  -0.00000000  0.31759741  0.35272365  1
  Er  Er8  1  0.50000000  0.95172905  0.72158699  1
  Er  Er9  1  0.50000000  0.04827095  0.27841301  1
  Er  Er10  1  0.00000000  0.45172905  0.77841301  1
  Er  Er11  1  0.00000000  0.54827095  0.22158699  1
  Cr  Cr12  1  0.00000000  -0.00000000  0.50000000  1
  Cr  Cr13  1  0.50000000  0.50000000  0.00000000  1
  Cr  Cr14  1  -0.00000000  -0.00000000  0.00000000  1
  Cr  Cr15  1  0.50000000  0.50000000  0.50000000  1
  S  S16  1  -0.00000000  0.18159524  0.97992621  1
  S  S17  1  -0.00000000  0.81840476  0.02007379  1
  S  S18  1  0.50000000  0.68159524  0.52007379  1
  S  S19  1  0.50000000  0.31840476  0.47992621  1
  S  S20  1  0.50000000  0.97924032  0.90168153  1
  S  S21  1  0.50000000  0.02075968  0.09831847  1
  S  S22  1  -0.00000000  0.47924032  0.59831847  1
  S  S23  1  0.00000000  0.52075968  0.40168153  1
  S  S24  1  -0.00000000  0.10492738  0.74764346  1
  S  S25  1  0.00000000  0.89507262  0.25235654  1
  S  S26  1  0.50000000  0.60492738  0.75235654  1
  S  S27  1  0.50000000  0.39507262  0.24764346  1
  S  S28  1  0.00000000  0.81204165  0.78977099  1
  S  S29  1  0.00000000  0.18795835  0.21022901  1
  S  S30  1  0.50000000  0.31204165  0.71022901  1
  S  S31  1  0.50000000  0.68795835  0.28977099  1
  S  S32  1  -0.00000000  0.41614188  0.07592934  1
  S  S33  1  -0.00000000  0.58385812  0.92407066  1
  S  S34  1  0.50000000  0.91614188  0.42407066  1
  S  S35  1  0.50000000  0.08385812  0.57592934  1
  S  S36  1  0.50000000  0.61886110  0.11005710  1
  S  S37  1  0.50000000  0.38113890  0.88994290  1
  S  S38  1  -0.00000000  0.11886110  0.38994290  1
  S  S39  1  0.00000000  0.88113890  0.61005710  1
