# generated using pymatgen
data_PrGeIr
_symmetry_space_group_name_H-M   'P 1'
_cell_length_a   4.49759710
_cell_length_b   7.25899366
_cell_length_c   7.39682632
_cell_angle_alpha   90.00000000
_cell_angle_beta   90.00000000
_cell_angle_gamma   90.00000000
_symmetry_Int_Tables_number   1
_chemical_formula_structural   PrGeIr
_chemical_formula_sum   'Pr4 Ge4 Ir4'
_cell_volume   241.49179898
_cell_formula_units_Z   4
loop_
 _symmetry_equiv_pos_site_id
 _symmetry_equiv_pos_as_xyz
  1  'x, y, z'
loop_
 _atom_site_type_symbol
 _atom_site_label
 _atom_site_symmetry_multiplicity
 _atom_site_fract_x
 _atom_site_fract_y
 _atom_site_fract_z
 _atom_site_occupancy
  Pr  Pr0  1  0.25000000  0.82246742  0.48167794  1
  Pr  Pr1  1  0.25000000  0.67753258  0.98167794  1
  Pr  Pr2  1  0.75000000  0.17753258  0.51832206  1
  Pr  Pr3  1  0.75000000  0.32246742  0.01832206  1
  Ge  Ge4  1  0.25000000  0.11034271  0.80599039  1
  Ge  Ge5  1  0.25000000  0.38965729  0.30599039  1
  Ge  Ge6  1  0.75000000  0.88965729  0.19400961  1
  Ge  Ge7  1  0.75000000  0.61034271  0.69400961  1
  Ir  Ir8  1  0.25000000  0.07247893  0.14417438  1
  Ir  Ir9  1  0.25000000  0.42752107  0.64417438  1
  Ir  Ir10  1  0.75000000  0.92752107  0.85582562  1
  Ir  Ir11  1  0.75000000  0.57247893  0.35582562  1
