# generated using pymatgen
data_DyB3Mo
_symmetry_space_group_name_H-M   'P 1'
_cell_length_a   3.15925114
_cell_length_b   5.43090775
_cell_length_c   6.84033652
_cell_angle_alpha   77.83532261
_cell_angle_beta   90.00000000
_cell_angle_gamma   90.00000000
_symmetry_Int_Tables_number   1
_chemical_formula_structural   DyB3Mo
_chemical_formula_sum   'Dy2 B6 Mo2'
_cell_volume   114.72848072
_cell_formula_units_Z   2
loop_
 _symmetry_equiv_pos_site_id
 _symmetry_equiv_pos_as_xyz
  1  'x, y, z'
loop_
 _atom_site_type_symbol
 _atom_site_label
 _atom_site_symmetry_multiplicity
 _atom_site_fract_x
 _atom_site_fract_y
 _atom_site_fract_z
 _atom_site_occupancy
  Dy  Dy0  1  0.25000000  0.32492804  0.70971323  1
  Dy  Dy1  1  0.75000000  0.67507196  0.29028677  1
  B  B2  1  0.25000000  0.91878198  0.52505462  1
  B  B3  1  0.75000000  0.08121802  0.47494538  1
  B  B4  1  0.25000000  0.91241948  0.00420672  1
  B  B5  1  0.75000000  0.08758052  0.99579328  1
  B  B6  1  0.25000000  0.58346073  0.00669995  1
  B  B7  1  0.75000000  0.41653927  0.99330005  1
  Mo  Mo8  1  0.25000000  0.18774567  0.21942682  1
  Mo  Mo9  1  0.75000000  0.81225433  0.78057318  1
