# generated using pymatgen
data_UVSe3
_symmetry_space_group_name_H-M   'P 1'
_cell_length_a   6.51063868
_cell_length_b   7.30833521
_cell_length_c   9.54962879
_cell_angle_alpha   90.00000000
_cell_angle_beta   90.00000000
_cell_angle_gamma   90.00000000
_symmetry_Int_Tables_number   1
_chemical_formula_structural   UVSe3
_chemical_formula_sum   'U4 V4 Se12'
_cell_volume   454.38976770
_cell_formula_units_Z   4
loop_
 _symmetry_equiv_pos_site_id
 _symmetry_equiv_pos_as_xyz
  1  'x, y, z'
loop_
 _atom_site_type_symbol
 _atom_site_label
 _atom_site_symmetry_multiplicity
 _atom_site_fract_x
 _atom_site_fract_y
 _atom_site_fract_z
 _atom_site_occupancy
  U  U0  1  0.55424763  0.11907437  0.75000000  1
  U  U1  1  0.94575237  0.61907437  0.75000000  1
  U  U2  1  0.44575237  0.88092563  0.25000000  1
  U  U3  1  0.05424763  0.38092563  0.25000000  1
  V  V4  1  0.50000000  0.50000000  -0.00000000  1
  V  V5  1  0.00000000  -0.00000000  0.50000000  1
  V  V6  1  0.50000000  0.50000000  0.50000000  1
  V  V7  1  0.00000000  -0.00000000  -0.00000000  1
  Se  Se8  1  0.33493990  0.18039384  0.43676113  1
  Se  Se9  1  0.16506010  0.68039384  0.06323887  1
  Se  Se10  1  0.66506010  0.81960616  0.93676113  1
  Se  Se11  1  0.83493990  0.31960616  0.56323887  1
  Se  Se12  1  0.66506010  0.81960616  0.56323887  1
  Se  Se13  1  0.83493990  0.31960616  0.93676113  1
  Se  Se14  1  0.33493990  0.18039384  0.06323887  1
  Se  Se15  1  0.16506010  0.68039384  0.43676113  1
  Se  Se16  1  0.35220423  0.46042544  0.75000000  1
  Se  Se17  1  0.14779577  0.96042544  0.75000000  1
  Se  Se18  1  0.64779577  0.53957456  0.25000000  1
  Se  Se19  1  0.85220423  0.03957456  0.25000000  1
