# generated using pymatgen
data_NaMgF3
_symmetry_space_group_name_H-M   'P 1'
_cell_length_a   2.97233230
_cell_length_b   5.16968508
_cell_length_c   7.29113575
_cell_angle_alpha   90.00000000
_cell_angle_beta   90.00000000
_cell_angle_gamma   106.70698005
_symmetry_Int_Tables_number   1
_chemical_formula_structural   NaMgF3
_chemical_formula_sum   'Na2 Mg2 F6'
_cell_volume   107.30644051
_cell_formula_units_Z   2
loop_
 _symmetry_equiv_pos_site_id
 _symmetry_equiv_pos_as_xyz
  1  'x, y, z'
loop_
 _atom_site_type_symbol
 _atom_site_label
 _atom_site_symmetry_multiplicity
 _atom_site_fract_x
 _atom_site_fract_y
 _atom_site_fract_z
 _atom_site_occupancy
  Na  Na0  1  0.25590503  0.51180806  0.00906557  1
  Na  Na1  1  0.74409497  0.48819194  0.50906557  1
  Mg  Mg2  1  0.00000592  0.00001084  0.75911105  1
  Mg  Mg3  1  0.99999408  0.99998916  0.25911105  1
  F  F4  1  0.37212199  0.74424497  0.70092003  1
  F  F5  1  0.62787801  0.25575503  0.20092003  1
  F  F6  1  0.37210430  0.74420659  0.31729430  1
  F  F7  1  0.62789670  0.25579341  0.81729430  1
  F  F8  1  0.92793966  0.85587933  0.00911006  1
  F  F9  1  0.07206034  0.14412067  0.50911006  1
