# generated using pymatgen
data_Cr(BMo)2
_symmetry_space_group_name_H-M   'P 1'
_cell_length_a   5.80779667
_cell_length_b   5.80779667
_cell_length_c   3.11437649
_cell_angle_alpha   90.00000000
_cell_angle_beta   90.00000000
_cell_angle_gamma   90.00000000
_symmetry_Int_Tables_number   1
_chemical_formula_structural   Cr(BMo)2
_chemical_formula_sum   'Cr2 B4 Mo4'
_cell_volume   105.04948292
_cell_formula_units_Z   2
loop_
 _symmetry_equiv_pos_site_id
 _symmetry_equiv_pos_as_xyz
  1  'x, y, z'
loop_
 _atom_site_type_symbol
 _atom_site_label
 _atom_site_symmetry_multiplicity
 _atom_site_fract_x
 _atom_site_fract_y
 _atom_site_fract_z
 _atom_site_occupancy
  Cr  Cr0  1  0.99999900  0.99999900  -0.00000000  1
  Cr  Cr1  1  0.50000100  0.50000100  -0.00000000  1
  B  B2  1  0.11416995  0.61416664  0.00000000  1
  B  B3  1  0.88582905  0.38583336  -0.00000000  1
  B  B4  1  0.61416764  0.88582905  0.00000000  1
  B  B5  1  0.38583336  0.11417095  -0.00000000  1
  Mo  Mo6  1  0.67696681  0.17697185  0.50000000  1
  Mo  Mo7  1  0.32303419  0.82302715  0.50000000  1
  Mo  Mo8  1  0.17697085  0.32303519  0.50000000  1
  Mo  Mo9  1  0.82302815  0.67696581  0.50000000  1
