# generated using pymatgen
data_YSe2
_symmetry_space_group_name_H-M   'P 1'
_cell_length_a   7.54018654
_cell_length_b   7.54018654
_cell_length_c   7.54018654
_cell_angle_alpha   148.61052879
_cell_angle_beta   135.80721321
_cell_angle_gamma   55.20479145
_symmetry_Int_Tables_number   1
_chemical_formula_structural   YSe2
_chemical_formula_sum   'Y2 Se4'
_cell_volume   154.63089173
_cell_formula_units_Z   2
loop_
 _symmetry_equiv_pos_site_id
 _symmetry_equiv_pos_as_xyz
  1  'x, y, z'
loop_
 _atom_site_type_symbol
 _atom_site_label
 _atom_site_symmetry_multiplicity
 _atom_site_fract_x
 _atom_site_fract_y
 _atom_site_fract_z
 _atom_site_occupancy
  Y  Y0  1  0.84919081  0.84919081  0.00000000  1
  Y  Y1  1  0.15080919  0.15080919  0.00000000  1
  Se  Se2  1  0.70660587  0.20660587  0.50000000  1
  Se  Se3  1  0.29339413  0.79339413  0.50000000  1
  Se  Se4  1  0.78921839  0.50000000  0.28921839  1
  Se  Se5  1  0.21078161  0.50000000  0.71078161  1
