# generated using pymatgen
data_HoAl4Ni
_symmetry_space_group_name_H-M   'P 1'
_cell_length_a   4.03765012
_cell_length_b   6.54878190
_cell_length_c   7.89995532
_cell_angle_alpha   90.00000000
_cell_angle_beta   104.80610707
_cell_angle_gamma   90.00000000
_symmetry_Int_Tables_number   1
_chemical_formula_structural   HoAl4Ni
_chemical_formula_sum   'Ho2 Al8 Ni2'
_cell_volume   201.95227948
_cell_formula_units_Z   2
loop_
 _symmetry_equiv_pos_site_id
 _symmetry_equiv_pos_as_xyz
  1  'x, y, z'
loop_
 _atom_site_type_symbol
 _atom_site_label
 _atom_site_symmetry_multiplicity
 _atom_site_fract_x
 _atom_site_fract_y
 _atom_site_fract_z
 _atom_site_occupancy
  Ho  Ho0  1  0.11815673  0.75000000  0.23631346  1
  Ho  Ho1  1  0.88184327  0.25000000  0.76368654  1
  Al  Al2  1  0.50000000  0.00000000  -0.00000000  1
  Al  Al3  1  0.50000000  0.50000000  -0.00000000  1
  Al  Al4  1  0.07642337  0.25000000  0.15284674  1
  Al  Al5  1  0.92357663  0.75000000  0.84715326  1
  Al  Al6  1  0.68887666  0.05301138  0.37775633  1
  Al  Al7  1  0.31112334  0.94698862  0.62224367  1
  Al  Al8  1  0.31112334  0.55301138  0.62224367  1
  Al  Al9  1  0.68887666  0.44698862  0.37775633  1
  Ni  Ni10  1  0.77363519  0.75000000  0.54726939  1
  Ni  Ni11  1  0.22636481  0.25000000  0.45273061  1
