# generated using pymatgen
data_USiIr
_symmetry_space_group_name_H-M   'P 1'
_cell_length_a   4.30596906
_cell_length_b   6.91943981
_cell_length_c   7.39218620
_cell_angle_alpha   90.00024806
_cell_angle_beta   90.00000000
_cell_angle_gamma   90.00000000
_symmetry_Int_Tables_number   1
_chemical_formula_structural   USiIr
_chemical_formula_sum   'U4 Si4 Ir4'
_cell_volume   220.24940229
_cell_formula_units_Z   4
loop_
 _symmetry_equiv_pos_site_id
 _symmetry_equiv_pos_as_xyz
  1  'x, y, z'
loop_
 _atom_site_type_symbol
 _atom_site_label
 _atom_site_symmetry_multiplicity
 _atom_site_fract_x
 _atom_site_fract_y
 _atom_site_fract_z
 _atom_site_occupancy
  U  U0  1  0.25000000  0.48693569  0.70422044  1
  U  U1  1  0.75000000  0.51308429  0.29580534  1
  U  U2  1  0.25000000  0.98696265  0.79580413  1
  U  U3  1  0.75000000  0.01306169  0.20418179  1
  Si  Si4  1  0.25000000  0.32110431  0.08466814  1
  Si  Si5  1  0.75000000  0.67887158  0.91535939  1
  Si  Si6  1  0.25000000  0.82111778  0.41534046  1
  Si  Si7  1  0.75000000  0.17886253  0.58462191  1
  Ir  Ir8  1  0.75000000  0.78713836  0.58842709  1
  Ir  Ir9  1  0.25000000  0.21285215  0.41165526  1
  Ir  Ir10  1  0.75000000  0.28710384  0.91158244  1
  Ir  Ir11  1  0.25000000  0.71290513  0.08833462  1
