# generated using pymatgen
data_U8MnS17
_symmetry_space_group_name_H-M   'P 1'
_cell_length_a   7.94017886
_cell_length_b   7.94017886
_cell_length_c   10.53407115
_cell_angle_alpha   80.29740309
_cell_angle_beta   80.29740309
_cell_angle_gamma   64.15577510
_symmetry_Int_Tables_number   1
_chemical_formula_structural   U8MnS17
_chemical_formula_sum   'U8 Mn1 S17'
_cell_volume   585.76805242
_cell_formula_units_Z   1
loop_
 _symmetry_equiv_pos_site_id
 _symmetry_equiv_pos_as_xyz
  1  'x, y, z'
loop_
 _atom_site_type_symbol
 _atom_site_label
 _atom_site_symmetry_multiplicity
 _atom_site_fract_x
 _atom_site_fract_y
 _atom_site_fract_z
 _atom_site_occupancy
  U  U0  1  0.81328134  0.30118788  0.29617771  1
  U  U1  1  0.30118788  0.81328134  0.29617771  1
  U  U2  1  0.18671866  0.69881212  0.70382229  1
  U  U3  1  0.69881212  0.18671866  0.70382229  1
  U  U4  1  0.79445395  0.79445395  0.45735496  1
  U  U5  1  0.20554605  0.20554605  0.54264504  1
  U  U6  1  0.31603094  0.31603094  0.01874419  1
  U  U7  1  0.68396906  0.68396906  0.98125581  1
  Mn  Mn8  1  0.00000000  -0.00000000  0.00000000  1
  S  S9  1  0.17516467  0.56948557  0.46743025  1
  S  S10  1  0.56948557  0.17516467  0.46743025  1
  S  S11  1  0.82483533  0.43051443  0.53256975  1
  S  S12  1  0.43051443  0.82483533  0.53256975  1
  S  S13  1  0.94042173  0.32993133  0.03427241  1
  S  S14  1  0.32993133  0.94042173  0.03427241  1
  S  S15  1  0.05957827  0.67006867  0.96572759  1
  S  S16  1  0.67006867  0.05957827  0.96572759  1
  S  S17  1  0.94079914  0.94079914  0.23155072  1
  S  S18  1  0.05920086  0.05920086  0.76844928  1
  S  S19  1  0.79227214  0.79227214  0.72036954  1
  S  S20  1  0.20772786  0.20772786  0.27963046  1
  S  S21  1  0.69581740  0.69581740  0.24760505  1
  S  S22  1  0.30418260  0.30418260  0.75239495  1
  S  S23  1  0.47918712  0.47918712  0.17047266  1
  S  S24  1  0.52081288  0.52081288  0.82952734  1
  S  S25  1  0.00000000  -0.00000000  0.50000000  1
