# generated using pymatgen
data_DyPRu2C
_symmetry_space_group_name_H-M   'P 1'
_cell_length_a   5.80623335
_cell_length_b   5.80623335
_cell_length_c   7.02164071
_cell_angle_alpha   90.00000000
_cell_angle_beta   90.00000000
_cell_angle_gamma   142.14982862
_symmetry_Int_Tables_number   1
_chemical_formula_structural   DyPRu2C
_chemical_formula_sum   'Dy2 P2 Ru4 C2'
_cell_volume   145.24862257
_cell_formula_units_Z   2
loop_
 _symmetry_equiv_pos_site_id
 _symmetry_equiv_pos_as_xyz
  1  'x, y, z'
loop_
 _atom_site_type_symbol
 _atom_site_label
 _atom_site_symmetry_multiplicity
 _atom_site_fract_x
 _atom_site_fract_y
 _atom_site_fract_z
 _atom_site_occupancy
  Dy  Dy0  1  0.54413382  0.45586618  0.25000000  1
  Dy  Dy1  1  0.45586618  0.54413382  0.75000000  1
  P  P2  1  0.26853904  0.73146096  0.25000000  1
  P  P3  1  0.73146096  0.26853904  0.75000000  1
  Ru  Ru4  1  0.83457677  0.16542323  0.05334602  1
  Ru  Ru5  1  0.16542323  0.83457677  0.94665398  1
  Ru  Ru6  1  0.16542323  0.83457677  0.55334602  1
  Ru  Ru7  1  0.83457677  0.16542323  0.44665398  1
  C  C8  1  0.00000000  0.00000000  -0.00000000  1
  C  C9  1  -0.00000000  -0.00000000  0.50000000  1
