# generated using pymatgen
data_TmTe
_symmetry_space_group_name_H-M   'P 1'
_cell_length_a   4.24961006
_cell_length_b   4.24784977
_cell_length_c   7.24147171
_cell_angle_alpha   89.99588748
_cell_angle_beta   90.00408781
_cell_angle_gamma   119.98647498
_symmetry_Int_Tables_number   1
_chemical_formula_structural   TmTe
_chemical_formula_sum   'Tm2 Te2'
_cell_volume   113.22305579
_cell_formula_units_Z   2
loop_
 _symmetry_equiv_pos_site_id
 _symmetry_equiv_pos_as_xyz
  1  'x, y, z'
loop_
 _atom_site_type_symbol
 _atom_site_label
 _atom_site_symmetry_multiplicity
 _atom_site_fract_x
 _atom_site_fract_y
 _atom_site_fract_z
 _atom_site_occupancy
  Tm  Tm0  1  0.00000917  -0.00001743  0.49997671  1
  Tm  Tm1  1  0.00000633  -0.00001488  -0.00001625  1
  Te  Te2  1  0.66593378  0.33303540  0.75006615  1
  Te  Te3  1  0.33405071  0.66699591  0.24997339  1
