# generated using pymatgen
data_EuZnSn
_symmetry_space_group_name_H-M   'P 1'
_cell_length_a   4.74901830
_cell_length_b   7.83307721
_cell_length_c   8.05245084
_cell_angle_alpha   89.99982768
_cell_angle_beta   90.00000000
_cell_angle_gamma   90.00000000
_symmetry_Int_Tables_number   1
_chemical_formula_structural   EuZnSn
_chemical_formula_sum   'Eu4 Zn4 Sn4'
_cell_volume   299.54655732
_cell_formula_units_Z   4
loop_
 _symmetry_equiv_pos_site_id
 _symmetry_equiv_pos_as_xyz
  1  'x, y, z'
loop_
 _atom_site_type_symbol
 _atom_site_label
 _atom_site_symmetry_multiplicity
 _atom_site_fract_x
 _atom_site_fract_y
 _atom_site_fract_z
 _atom_site_occupancy
  Eu  Eu0  1  0.25000000  0.49607485  0.78759955  1
  Eu  Eu1  1  0.75000000  0.50392515  0.21240045  1
  Eu  Eu2  1  0.25000000  0.99607629  0.71237742  1
  Eu  Eu3  1  0.75000000  0.00392371  0.28762258  1
  Zn  Zn4  1  0.75000000  0.32054514  0.58279719  1
  Zn  Zn5  1  0.25000000  0.17941162  0.08279849  1
  Zn  Zn6  1  0.75000000  0.82058838  0.91720151  1
  Zn  Zn7  1  0.25000000  0.67945486  0.41720281  1
  Sn  Sn8  1  0.25000000  0.29084589  0.40886922  1
  Sn  Sn9  1  0.75000000  0.20913452  0.90886342  1
  Sn  Sn10  1  0.25000000  0.79086548  0.09113658  1
  Sn  Sn11  1  0.75000000  0.70915411  0.59113078  1
