# generated using pymatgen
data_YbZnGa
_symmetry_space_group_name_H-M   'P 1'
_cell_length_a   5.57309846
_cell_length_b   5.57309846
_cell_length_c   6.99577633
_cell_angle_alpha   50.91838171
_cell_angle_beta   50.91838171
_cell_angle_gamma   45.50135770
_symmetry_Int_Tables_number   1
_chemical_formula_structural   YbZnGa
_chemical_formula_sum   'Yb2 Zn2 Ga2'
_cell_volume   113.11264067
_cell_formula_units_Z   2
loop_
 _symmetry_equiv_pos_site_id
 _symmetry_equiv_pos_as_xyz
  1  'x, y, z'
loop_
 _atom_site_type_symbol
 _atom_site_label
 _atom_site_symmetry_multiplicity
 _atom_site_fract_x
 _atom_site_fract_y
 _atom_site_fract_z
 _atom_site_occupancy
  Yb  Yb0  1  0.51838073  0.51838073  0.72988086  1
  Yb  Yb1  1  0.48161927  0.48161927  0.27011914  1
  Zn  Zn2  1  0.16510846  0.16510846  0.30682418  1
  Zn  Zn3  1  0.83489154  0.83489154  0.69317582  1
  Ga  Ga4  1  0.83341924  0.83341924  0.14601703  1
  Ga  Ga5  1  0.16658076  0.16658076  0.85398297  1
