# generated using pymatgen
data_LuGaAu
_symmetry_space_group_name_H-M   'P 1'
_cell_length_a   5.57802664
_cell_length_b   5.57802664
_cell_length_c   6.91511269
_cell_angle_alpha   52.63008563
_cell_angle_beta   52.63008563
_cell_angle_gamma   46.49816058
_symmetry_Int_Tables_number   1
_chemical_formula_structural   LuGaAu
_chemical_formula_sum   'Lu2 Ga2 Au2'
_cell_volume   117.16484232
_cell_formula_units_Z   2
loop_
 _symmetry_equiv_pos_site_id
 _symmetry_equiv_pos_as_xyz
  1  'x, y, z'
loop_
 _atom_site_type_symbol
 _atom_site_label
 _atom_site_symmetry_multiplicity
 _atom_site_fract_x
 _atom_site_fract_y
 _atom_site_fract_z
 _atom_site_occupancy
  Lu  Lu0  1  0.53647148  0.53647148  0.70336847  1
  Lu  Lu1  1  0.46352852  0.46352852  0.29663153  1
  Ga  Ga2  1  0.84235509  0.84235509  0.10714149  1
  Ga  Ga3  1  0.15764491  0.15764491  0.89285851  1
  Au  Au4  1  0.17677137  0.17677137  0.28649793  1
  Au  Au5  1  0.82322863  0.82322863  0.71350207  1
