# generated using pymatgen
data_BaIn2Pd
_symmetry_space_group_name_H-M   'P 1'
_cell_length_a   4.58564993
_cell_length_b   6.38611718
_cell_length_c   8.10205857
_cell_angle_alpha   90.00000000
_cell_angle_beta   90.00000000
_cell_angle_gamma   111.04081905
_symmetry_Int_Tables_number   1
_chemical_formula_structural   BaIn2Pd
_chemical_formula_sum   'Ba2 In4 Pd2'
_cell_volume   221.44506272
_cell_formula_units_Z   2
loop_
 _symmetry_equiv_pos_site_id
 _symmetry_equiv_pos_as_xyz
  1  'x, y, z'
loop_
 _atom_site_type_symbol
 _atom_site_label
 _atom_site_symmetry_multiplicity
 _atom_site_fract_x
 _atom_site_fract_y
 _atom_site_fract_z
 _atom_site_occupancy
  Ba  Ba0  1  0.45312624  0.90625348  0.25000000  1
  Ba  Ba1  1  0.54687376  0.09374652  0.75000000  1
  In  In2  1  0.17022273  0.34044545  0.05736678  1
  In  In3  1  0.82977727  0.65955455  0.94263322  1
  In  In4  1  0.82977727  0.65955455  0.55736678  1
  In  In5  1  0.17022273  0.34044545  0.44263322  1
  Pd  Pd6  1  0.72301704  0.44603409  0.25000000  1
  Pd  Pd7  1  0.27698296  0.55396591  0.75000000  1
