# generated using pymatgen
data_PaV
_symmetry_space_group_name_H-M   'P 1'
_cell_length_a   3.06121392
_cell_length_b   3.06121392
_cell_length_c   4.69908800
_cell_angle_alpha   90.00000000
_cell_angle_beta   90.00000000
_cell_angle_gamma   119.51082930
_symmetry_Int_Tables_number   1
_chemical_formula_structural   PaV
_chemical_formula_sum   'Pa1 V1'
_cell_volume   38.32227307
_cell_formula_units_Z   1
loop_
 _symmetry_equiv_pos_site_id
 _symmetry_equiv_pos_as_xyz
  1  'x, y, z'
loop_
 _atom_site_type_symbol
 _atom_site_label
 _atom_site_symmetry_multiplicity
 _atom_site_fract_x
 _atom_site_fract_y
 _atom_site_fract_z
 _atom_site_occupancy
  Pa  Pa0  1  0.67486100  0.32513900  0.50000000  1
  V  V1  1  0.33256800  0.66743200  0.00000000  1
