# generated using pymatgen
data_LuGeIr
_symmetry_space_group_name_H-M   'P 1'
_cell_length_a   4.21511137
_cell_length_b   6.69772823
_cell_length_c   7.54660545
_cell_angle_alpha   90.00000000
_cell_angle_beta   90.00000000
_cell_angle_gamma   90.00000000
_symmetry_Int_Tables_number   1
_chemical_formula_structural   LuGeIr
_chemical_formula_sum   'Lu4 Ge4 Ir4'
_cell_volume   213.05327782
_cell_formula_units_Z   4
loop_
 _symmetry_equiv_pos_site_id
 _symmetry_equiv_pos_as_xyz
  1  'x, y, z'
loop_
 _atom_site_type_symbol
 _atom_site_label
 _atom_site_symmetry_multiplicity
 _atom_site_fract_x
 _atom_site_fract_y
 _atom_site_fract_z
 _atom_site_occupancy
  Lu  Lu0  1  0.75000000  0.50939736  0.19166598  1
  Lu  Lu1  1  0.25000000  0.99060264  0.69166598  1
  Lu  Lu2  1  0.75000000  0.00939736  0.30833402  1
  Lu  Lu3  1  0.25000000  0.49060264  0.80833402  1
  Ge  Ge4  1  0.25000000  0.71203612  0.38488456  1
  Ge  Ge5  1  0.25000000  0.21203612  0.11511544  1
  Ge  Ge6  1  0.75000000  0.28796388  0.61511544  1
  Ge  Ge7  1  0.75000000  0.78796388  0.88488456  1
  Ir  Ir8  1  0.25000000  0.83882412  0.06247870  1
  Ir  Ir9  1  0.25000000  0.33882412  0.43752130  1
  Ir  Ir10  1  0.75000000  0.66117588  0.56247870  1
  Ir  Ir11  1  0.75000000  0.16117588  0.93752130  1
