# generated using pymatgen
data_SmPS
_symmetry_space_group_name_H-M   'P 1'
_cell_length_a   5.44591165
_cell_length_b   5.50003892
_cell_length_c   17.00486523
_cell_angle_alpha   90.00000000
_cell_angle_beta   90.00000000
_cell_angle_gamma   90.00000000
_symmetry_Int_Tables_number   1
_chemical_formula_structural   SmPS
_chemical_formula_sum   'Sm8 P8 S8'
_cell_volume   509.34206941
_cell_formula_units_Z   8
loop_
 _symmetry_equiv_pos_site_id
 _symmetry_equiv_pos_as_xyz
  1  'x, y, z'
loop_
 _atom_site_type_symbol
 _atom_site_label
 _atom_site_symmetry_multiplicity
 _atom_site_fract_x
 _atom_site_fract_y
 _atom_site_fract_z
 _atom_site_occupancy
  Sm  Sm0  1  0.25000000  0.48336966  0.36221289  1
  Sm  Sm1  1  0.25000000  0.98336966  0.13778711  1
  Sm  Sm2  1  0.75000000  0.51663034  0.63778711  1
  Sm  Sm3  1  0.75000000  0.01663034  0.86221289  1
  Sm  Sm4  1  0.25000000  0.01559711  0.64758918  1
  Sm  Sm5  1  0.25000000  0.51559711  0.85241082  1
  Sm  Sm6  1  0.75000000  0.98440289  0.35241082  1
  Sm  Sm7  1  0.75000000  0.48440289  0.14758918  1
  P  P8  1  0.04342683  0.30211583  0.99719267  1
  P  P9  1  0.45657317  0.80211583  0.50280733  1
  P  P10  1  0.54342683  0.69788417  0.00280733  1
  P  P11  1  0.95657317  0.19788417  0.49719267  1
  P  P12  1  0.95657317  0.69788417  0.00280733  1
  P  P13  1  0.54342683  0.19788417  0.49719267  1
  P  P14  1  0.45657317  0.30211583  0.99719267  1
  P  P15  1  0.04342683  0.80211583  0.50280733  1
  S  S16  1  0.25000000  0.48498783  0.18904188  1
  S  S17  1  0.25000000  0.98498783  0.31095812  1
  S  S18  1  0.75000000  0.51501217  0.81095812  1
  S  S19  1  0.75000000  0.01501217  0.68904188  1
  S  S20  1  0.25000000  0.01162906  0.81683513  1
  S  S21  1  0.25000000  0.51162906  0.68316487  1
  S  S22  1  0.75000000  0.98837094  0.18316487  1
  S  S23  1  0.75000000  0.48837094  0.31683513  1
