# generated using pymatgen
data_La(SbPd)2
_symmetry_space_group_name_H-M   'P 1'
_cell_length_a   4.69668719
_cell_length_b   4.69668719
_cell_length_c   10.40743190
_cell_angle_alpha   90.00000000
_cell_angle_beta   90.00000000
_cell_angle_gamma   90.00000000
_symmetry_Int_Tables_number   1
_chemical_formula_structural   La(SbPd)2
_chemical_formula_sum   'La2 Sb4 Pd4'
_cell_volume   229.57619315
_cell_formula_units_Z   2
loop_
 _symmetry_equiv_pos_site_id
 _symmetry_equiv_pos_as_xyz
  1  'x, y, z'
loop_
 _atom_site_type_symbol
 _atom_site_label
 _atom_site_symmetry_multiplicity
 _atom_site_fract_x
 _atom_site_fract_y
 _atom_site_fract_z
 _atom_site_occupancy
  La  La0  1  0.75000000  0.75000000  0.24151674  1
  La  La1  1  0.25000000  0.25000000  0.75848326  1
  Sb  Sb2  1  0.75000000  0.25000000  0.50000000  1
  Sb  Sb3  1  0.25000000  0.75000000  0.50000000  1
  Sb  Sb4  1  0.75000000  0.75000000  0.87319999  1
  Sb  Sb5  1  0.25000000  0.25000000  0.12680001  1
  Pd  Pd6  1  0.75000000  0.25000000  0.00000000  1
  Pd  Pd7  1  0.25000000  0.75000000  0.00000000  1
  Pd  Pd8  1  0.75000000  0.75000000  0.62286418  1
  Pd  Pd9  1  0.25000000  0.25000000  0.37713582  1
