# generated using pymatgen
data_Cs6Fe2O5
_symmetry_space_group_name_H-M   'P 1'
_cell_length_a   7.19217594
_cell_length_b   7.19217594
_cell_length_c   7.36194056
_cell_angle_alpha   86.43868713
_cell_angle_beta   86.43868713
_cell_angle_gamma   116.96569944
_symmetry_Int_Tables_number   1
_chemical_formula_structural   Cs6Fe2O5
_chemical_formula_sum   'Cs6 Fe2 O5'
_cell_volume   337.00651413
_cell_formula_units_Z   1
loop_
 _symmetry_equiv_pos_site_id
 _symmetry_equiv_pos_as_xyz
  1  'x, y, z'
loop_
 _atom_site_type_symbol
 _atom_site_label
 _atom_site_symmetry_multiplicity
 _atom_site_fract_x
 _atom_site_fract_y
 _atom_site_fract_z
 _atom_site_occupancy
  Cs  Cs0  1  0.98900745  0.98900745  0.36012160  1
  Cs  Cs1  1  0.70134018  0.70134018  0.99326052  1
  Cs  Cs2  1  0.59771321  0.10813943  0.68516288  1
  Cs  Cs3  1  0.10813943  0.59771321  0.68516288  1
  Cs  Cs4  1  0.56065527  0.14025167  0.18275455  1
  Cs  Cs5  1  0.14025167  0.56065527  0.18275455  1
  Fe  Fe6  1  0.16566857  0.16566857  0.87579825  1
  Fe  Fe7  1  0.54845097  0.54845097  0.51083143  1
  O  O8  1  0.39896205  0.39896205  0.74037607  1
  O  O9  1  0.51022546  0.76893243  0.40959885  1
  O  O10  1  0.76893243  0.51022546  0.40959885  1
  O  O11  1  0.18674560  0.92750672  0.95498928  1
  O  O12  1  0.92750672  0.18674560  0.95498928  1
