# generated using pymatgen
data_Ti4CN3
_symmetry_space_group_name_H-M   'P 1'
_cell_length_a   10.00879932
_cell_length_b   10.00879932
_cell_length_c   10.00879889
_cell_angle_alpha   17.31368168
_cell_angle_beta   17.31368168
_cell_angle_gamma   17.31368363
_symmetry_Int_Tables_number   1
_chemical_formula_structural   Ti4CN3
_chemical_formula_sum   'Ti4 C1 N3'
_cell_volume   77.48943424
_cell_formula_units_Z   1
loop_
 _symmetry_equiv_pos_site_id
 _symmetry_equiv_pos_as_xyz
  1  'x, y, z'
loop_
 _atom_site_type_symbol
 _atom_site_label
 _atom_site_symmetry_multiplicity
 _atom_site_fract_x
 _atom_site_fract_y
 _atom_site_fract_z
 _atom_site_occupancy
  Ti  Ti0  1  0.62563979  0.62563979  0.62563979  1
  Ti  Ti1  1  0.37436021  0.37436021  0.37436021  1
  Ti  Ti2  1  0.87468820  0.87468820  0.87468820  1
  Ti  Ti3  1  0.12531180  0.12531180  0.12531180  1
  C  C4  1  0.50000000  0.50000000  0.50000000  1
  N  N5  1  0.74883449  0.74883449  0.74883449  1
  N  N6  1  -0.00000000  -0.00000000  0.00000000  1
  N  N7  1  0.25116551  0.25116551  0.25116551  1
