# generated using pymatgen
data_SmPt
_symmetry_space_group_name_H-M   'P 1'
_cell_length_a   4.54495118
_cell_length_b   7.24419316
_cell_length_c   5.64596888
_cell_angle_alpha   90.00000000
_cell_angle_beta   90.00000000
_cell_angle_gamma   90.00000000
_symmetry_Int_Tables_number   1
_chemical_formula_structural   SmPt
_chemical_formula_sum   'Sm4 Pt4'
_cell_volume   185.89072639
_cell_formula_units_Z   4
loop_
 _symmetry_equiv_pos_site_id
 _symmetry_equiv_pos_as_xyz
  1  'x, y, z'
loop_
 _atom_site_type_symbol
 _atom_site_label
 _atom_site_symmetry_multiplicity
 _atom_site_fract_x
 _atom_site_fract_y
 _atom_site_fract_z
 _atom_site_occupancy
  Sm  Sm0  1  0.75000000  0.81742362  0.36139407  1
  Sm  Sm1  1  0.25000000  0.18257638  0.63860593  1
  Sm  Sm2  1  0.25000000  0.68257638  0.86139407  1
  Sm  Sm3  1  0.75000000  0.31742362  0.13860593  1
  Pt  Pt4  1  0.75000000  0.95595972  0.84687815  1
  Pt  Pt5  1  0.25000000  0.04404028  0.15312185  1
  Pt  Pt6  1  0.25000000  0.54404028  0.34687815  1
  Pt  Pt7  1  0.75000000  0.45595972  0.65312185  1
