# generated using pymatgen
data_Th3Pt5
_symmetry_space_group_name_H-M   'P 1'
_cell_length_a   3.87830398
_cell_length_b   7.24567958
_cell_length_c   7.24567958
_cell_angle_alpha   120.00000585
_cell_angle_beta   90.00000000
_cell_angle_gamma   90.00000000
_symmetry_Int_Tables_number   1
_chemical_formula_structural   Th3Pt5
_chemical_formula_sum   'Th3 Pt5'
_cell_volume   176.33182461
_cell_formula_units_Z   1
loop_
 _symmetry_equiv_pos_site_id
 _symmetry_equiv_pos_as_xyz
  1  'x, y, z'
loop_
 _atom_site_type_symbol
 _atom_site_label
 _atom_site_symmetry_multiplicity
 _atom_site_fract_x
 _atom_site_fract_y
 _atom_site_fract_z
 _atom_site_occupancy
  Th  Th0  1  0.50000000  0.35984098  0.35984098  1
  Th  Th1  1  0.50000000  -0.00000000  0.64015802  1
  Th  Th2  1  0.50000000  0.64015802  -0.00000000  1
  Pt  Pt3  1  -0.00000000  0.77248881  0.77248881  1
  Pt  Pt4  1  -0.00000000  0.00000000  0.22751119  1
  Pt  Pt5  1  0.00000000  0.22751119  0.00000000  1
  Pt  Pt6  1  0.00000000  0.66666700  0.33333300  1
  Pt  Pt7  1  -0.00000000  0.33333300  0.66666700  1
