# generated using pymatgen
data_Ca5(SnAs3)2
_symmetry_space_group_name_H-M   'P 1'
_cell_length_a   4.15318924
_cell_length_b   12.04938772
_cell_length_c   13.47439060
_cell_angle_alpha   90.00000000
_cell_angle_beta   90.00000000
_cell_angle_gamma   90.00000000
_symmetry_Int_Tables_number   1
_chemical_formula_structural   Ca5(SnAs3)2
_chemical_formula_sum   'Ca10 Sn4 As12'
_cell_volume   674.30414914
_cell_formula_units_Z   2
loop_
 _symmetry_equiv_pos_site_id
 _symmetry_equiv_pos_as_xyz
  1  'x, y, z'
loop_
 _atom_site_type_symbol
 _atom_site_label
 _atom_site_symmetry_multiplicity
 _atom_site_fract_x
 _atom_site_fract_y
 _atom_site_fract_z
 _atom_site_occupancy
  Ca  Ca0  1  0.00000000  0.62312204  0.74340499  1
  Ca  Ca1  1  0.00000000  0.37687796  0.25659501  1
  Ca  Ca2  1  0.00000000  0.12312204  0.75659501  1
  Ca  Ca3  1  0.00000000  0.87687796  0.24340499  1
  Ca  Ca4  1  0.00000000  0.00000000  -0.00000000  1
  Ca  Ca5  1  0.00000000  0.50000000  0.50000000  1
  Ca  Ca6  1  0.00000000  0.86808145  0.56598422  1
  Ca  Ca7  1  0.00000000  0.13191855  0.43401578  1
  Ca  Ca8  1  0.00000000  0.36808145  0.93401578  1
  Ca  Ca9  1  0.00000000  0.63191855  0.06598422  1
  Sn  Sn10  1  0.50000000  0.29020069  0.60787716  1
  Sn  Sn11  1  0.50000000  0.20979931  0.10787716  1
  Sn  Sn12  1  0.50000000  0.79020069  0.89212284  1
  Sn  Sn13  1  0.50000000  0.70979931  0.39212284  1
  As  As14  1  0.00000000  0.37590759  0.70308626  1
  As  As15  1  0.00000000  0.12409241  0.20308626  1
  As  As16  1  0.00000000  0.87590759  0.79691374  1
  As  As17  1  0.00000000  0.62409241  0.29691374  1
  As  As18  1  0.50000000  0.83432075  0.08223850  1
  As  As19  1  0.50000000  0.16567925  0.91776150  1
  As  As20  1  0.50000000  0.33432075  0.41776150  1
  As  As21  1  0.50000000  0.66567925  0.58223850  1
  As  As22  1  0.50000000  0.57459644  0.89710927  1
  As  As23  1  0.50000000  0.42540356  0.10289073  1
  As  As24  1  0.50000000  0.07459644  0.60289073  1
  As  As25  1  0.50000000  0.92540356  0.39710927  1
