# generated using pymatgen
data_Mn(BiSe2)2
_symmetry_space_group_name_H-M   'P 1'
_cell_length_a   4.07875928
_cell_length_b   6.96783979
_cell_length_c   14.11611021
_cell_angle_alpha   87.49048378
_cell_angle_beta   81.69330304
_cell_angle_gamma   72.98124131
_symmetry_Int_Tables_number   1
_chemical_formula_structural   Mn(BiSe2)2
_chemical_formula_sum   'Mn2 Bi4 Se8'
_cell_volume   379.58868072
_cell_formula_units_Z   2
loop_
 _symmetry_equiv_pos_site_id
 _symmetry_equiv_pos_as_xyz
  1  'x, y, z'
loop_
 _atom_site_type_symbol
 _atom_site_label
 _atom_site_symmetry_multiplicity
 _atom_site_fract_x
 _atom_site_fract_y
 _atom_site_fract_z
 _atom_site_occupancy
  Mn  Mn0  1  0.00000000  0.50000000  0.50000000  1
  Mn  Mn1  1  0.00000000  -0.00000000  -0.00000000  1
  Bi  Bi2  1  0.22096369  0.93027009  0.62780454  1
  Bi  Bi3  1  0.77903631  0.06972991  0.37219546  1
  Bi  Bi4  1  0.35192861  0.43329803  0.86284375  1
  Bi  Bi5  1  0.64807139  0.56670197  0.13715625  1
  Se  Se6  1  0.65701819  0.72954562  0.95641601  1
  Se  Se7  1  0.34298181  0.27045438  0.04358399  1
  Se  Se8  1  0.01265112  0.14828159  0.82641517  1
  Se  Se9  1  0.98734888  0.85171841  0.17358483  1
  Se  Se10  1  0.60051952  0.24450575  0.55445321  1
  Se  Se11  1  0.39948048  0.75549425  0.44554679  1
  Se  Se12  1  0.83355163  0.65509447  0.67780226  1
  Se  Se13  1  0.16644837  0.34490553  0.32219774  1
