# generated using pymatgen
data_Sr(PIr)2
_symmetry_space_group_name_H-M   'P 1'
_cell_length_a   6.73975339
_cell_length_b   6.73975401
_cell_length_c   7.11855429
_cell_angle_alpha   90.00000000
_cell_angle_beta   90.00000000
_cell_angle_gamma   119.99999702
_symmetry_Int_Tables_number   1
_chemical_formula_structural   Sr(PIr)2
_chemical_formula_sum   'Sr3 P6 Ir6'
_cell_volume   280.03382834
_cell_formula_units_Z   3
loop_
 _symmetry_equiv_pos_site_id
 _symmetry_equiv_pos_as_xyz
  1  'x, y, z'
loop_
 _atom_site_type_symbol
 _atom_site_label
 _atom_site_symmetry_multiplicity
 _atom_site_fract_x
 _atom_site_fract_y
 _atom_site_fract_z
 _atom_site_occupancy
  Sr  Sr0  1  -0.00000000  0.60029395  0.83333300  1
  Sr  Sr1  1  0.39970605  0.39970605  0.50000000  1
  Sr  Sr2  1  0.60029395  -0.00000000  0.16666700  1
  P  P3  1  0.87686520  0.21621277  0.54231473  1
  P  P4  1  0.21621277  0.87686520  0.45768527  1
  P  P5  1  0.12313480  0.33934856  0.12435127  1
  P  P6  1  0.78378723  0.66065144  0.20898173  1
  P  P7  1  0.33934856  0.12313480  0.87564873  1
  P  P8  1  0.66065144  0.78378723  0.79101827  1
  Ir  Ir9  1  0.87048254  0.87048254  0.50000000  1
  Ir  Ir10  1  0.12951746  -0.00000000  0.16666700  1
  Ir  Ir11  1  0.49015292  0.49015292  -0.00000000  1
  Ir  Ir12  1  -0.00000000  0.50984708  0.33333300  1
  Ir  Ir13  1  0.50984708  -0.00000000  0.66666700  1
  Ir  Ir14  1  -0.00000000  0.12951746  0.83333300  1
