# generated using pymatgen
data_U2AsS
_symmetry_space_group_name_H-M   'P 1'
_cell_length_a   6.72335208
_cell_length_b   6.72335208
_cell_length_c   6.72335201
_cell_angle_alpha   36.03461270
_cell_angle_beta   36.03461270
_cell_angle_gamma   36.03460930
_symmetry_Int_Tables_number   1
_chemical_formula_structural   U2AsS
_chemical_formula_sum   'U2 As1 S1'
_cell_volume   94.07798515
_cell_formula_units_Z   1
loop_
 _symmetry_equiv_pos_site_id
 _symmetry_equiv_pos_as_xyz
  1  'x, y, z'
loop_
 _atom_site_type_symbol
 _atom_site_label
 _atom_site_symmetry_multiplicity
 _atom_site_fract_x
 _atom_site_fract_y
 _atom_site_fract_z
 _atom_site_occupancy
  U  U0  1  0.24686712  0.24686712  0.24686712  1
  U  U1  1  0.75313288  0.75313288  0.75313288  1
  As  As2  1  0.00000000  0.00000000  0.00000000  1
  S  S3  1  0.50000000  0.50000000  0.50000000  1
