# generated using pymatgen
data_K2Fe2SeS3
_symmetry_space_group_name_H-M   'P 1'
_cell_length_a   5.45218300
_cell_length_b   6.68242389
_cell_length_c   6.69702933
_cell_angle_alpha   116.07857269
_cell_angle_beta   101.02191655
_cell_angle_gamma   101.88592990
_symmetry_Int_Tables_number   1
_chemical_formula_structural   K2Fe2SeS3
_chemical_formula_sum   'K2 Fe2 Se1 S3'
_cell_volume   203.14308799
_cell_formula_units_Z   1
loop_
 _symmetry_equiv_pos_site_id
 _symmetry_equiv_pos_as_xyz
  1  'x, y, z'
loop_
 _atom_site_type_symbol
 _atom_site_label
 _atom_site_symmetry_multiplicity
 _atom_site_fract_x
 _atom_site_fract_y
 _atom_site_fract_z
 _atom_site_occupancy
  K  K0  1  0.24475200  0.72038100  0.64035000  1
  K  K1  1  0.74468400  0.28292300  0.35116700  1
  Fe  Fe2  1  0.24878000  0.98696700  0.00941200  1
  Fe  Fe3  1  0.75691700  0.00349200  0.00267500  1
  Se  Se4  1  0.40125200  0.22839300  0.68599000  1
  S  S5  1  0.10440200  0.20241200  0.09458200  1
  S  S6  1  0.59782100  0.79058800  0.29495000  1
  S  S7  1  0.90139200  0.78484400  0.92087400  1
