# generated using pymatgen
data_SmGa2Ni
_symmetry_space_group_name_H-M   'P 1'
_cell_length_a   4.10748079
_cell_length_b   4.13985510
_cell_length_c   8.90554555
_cell_angle_alpha   103.43543666
_cell_angle_beta   89.99999905
_cell_angle_gamma   90.00000028
_symmetry_Int_Tables_number   1
_chemical_formula_structural   SmGa2Ni
_chemical_formula_sum   'Sm2 Ga4 Ni2'
_cell_volume   147.28886846
_cell_formula_units_Z   2
loop_
 _symmetry_equiv_pos_site_id
 _symmetry_equiv_pos_as_xyz
  1  'x, y, z'
loop_
 _atom_site_type_symbol
 _atom_site_label
 _atom_site_symmetry_multiplicity
 _atom_site_fract_x
 _atom_site_fract_y
 _atom_site_fract_z
 _atom_site_occupancy
  Sm  Sm0  1  0.49999999  0.35792378  0.71586504  1
  Sm  Sm1  1  0.50000001  0.64206109  0.28409953  1
  Ga  Ga2  1  0.00000001  0.20939972  0.41884011  1
  Ga  Ga3  1  0.00000000  0.79048468  0.58094612  1
  Ga  Ga4  1  0.49999999  0.00003421  0.00006601  1
  Ga  Ga5  1  -0.00000000  0.50003415  0.00006567  1
  Ni  Ni6  1  0.00000002  0.07364247  0.14623066  1
  Ni  Ni7  1  -0.00000001  0.92641990  0.85388686  1
