# generated using pymatgen
data_HfMo2
_symmetry_space_group_name_H-M   'P 1'
_cell_length_a   5.34847517
_cell_length_b   5.34847517
_cell_length_c   17.36952878
_cell_angle_alpha   90.00000000
_cell_angle_beta   90.00000000
_cell_angle_gamma   120.00000606
_symmetry_Int_Tables_number   1
_chemical_formula_structural   HfMo2
_chemical_formula_sum   'Hf8 Mo16'
_cell_volume   430.30719682
_cell_formula_units_Z   8
loop_
 _symmetry_equiv_pos_site_id
 _symmetry_equiv_pos_as_xyz
  1  'x, y, z'
loop_
 _atom_site_type_symbol
 _atom_site_label
 _atom_site_symmetry_multiplicity
 _atom_site_fract_x
 _atom_site_fract_y
 _atom_site_fract_z
 _atom_site_occupancy
  Hf  Hf0  1  -0.00000000  0.00000000  0.40505238  1
  Hf  Hf1  1  -0.00000000  0.00000000  0.59494762  1
  Hf  Hf2  1  -0.00000000  0.00000000  0.90505238  1
  Hf  Hf3  1  -0.00000000  0.00000000  0.09494762  1
  Hf  Hf4  1  0.33333300  0.66666700  0.65638865  1
  Hf  Hf5  1  0.66666700  0.33333300  0.34361135  1
  Hf  Hf6  1  0.66666700  0.33333300  0.15638865  1
  Hf  Hf7  1  0.33333300  0.66666700  0.84361135  1
  Mo  Mo8  1  0.33333300  0.66666700  0.37653897  1
  Mo  Mo9  1  0.66666700  0.33333300  0.62346103  1
  Mo  Mo10  1  0.66666700  0.33333300  0.87653897  1
  Mo  Mo11  1  0.33333300  0.66666700  0.12346103  1
  Mo  Mo12  1  0.50000000  0.50000000  0.50000000  1
  Mo  Mo13  1  0.50000000  0.00000000  0.50000000  1
  Mo  Mo14  1  -0.00000000  0.50000000  0.50000000  1
  Mo  Mo15  1  0.50000000  0.50000000  -0.00000000  1
  Mo  Mo16  1  0.50000000  0.00000000  -0.00000000  1
  Mo  Mo17  1  -0.00000000  0.50000000  -0.00000000  1
  Mo  Mo18  1  0.16343570  0.83656430  0.25000000  1
  Mo  Mo19  1  0.16343570  0.32687140  0.25000000  1
  Mo  Mo20  1  0.67312860  0.83656430  0.25000000  1
  Mo  Mo21  1  0.83656430  0.16343570  0.75000000  1
  Mo  Mo22  1  0.83656430  0.67312860  0.75000000  1
  Mo  Mo23  1  0.32687140  0.16343570  0.75000000  1
