# generated using pymatgen
data_TmAsPd
_symmetry_space_group_name_H-M   'P 1'
_cell_length_a   4.06320855
_cell_length_b   6.97621629
_cell_length_c   7.86685984
_cell_angle_alpha   90.00000000
_cell_angle_beta   90.00000000
_cell_angle_gamma   90.00000000
_symmetry_Int_Tables_number   1
_chemical_formula_structural   TmAsPd
_chemical_formula_sum   'Tm4 As4 Pd4'
_cell_volume   222.99260618
_cell_formula_units_Z   4
loop_
 _symmetry_equiv_pos_site_id
 _symmetry_equiv_pos_as_xyz
  1  'x, y, z'
loop_
 _atom_site_type_symbol
 _atom_site_label
 _atom_site_symmetry_multiplicity
 _atom_site_fract_x
 _atom_site_fract_y
 _atom_site_fract_z
 _atom_site_occupancy
  Tm  Tm0  1  0.75000000  0.96576594  0.19178648  1
  Tm  Tm1  1  0.75000000  0.46576594  0.30821252  1
  Tm  Tm2  1  0.25000000  0.03423406  0.80821252  1
  Tm  Tm3  1  0.25000000  0.53423406  0.69178748  1
  As  As4  1  0.75000000  0.25643063  0.62121613  1
  As  As5  1  0.75000000  0.75643063  0.87878387  1
  As  As6  1  0.25000000  0.74356937  0.37878387  1
  As  As7  1  0.25000000  0.24356937  0.12121613  1
  Pd  Pd8  1  0.75000000  0.85827125  0.56303084  1
  Pd  Pd9  1  0.75000000  0.35827125  0.93696916  1
  Pd  Pd10  1  0.25000000  0.14172875  0.43696916  1
  Pd  Pd11  1  0.25000000  0.64172875  0.06303084  1
