# generated using pymatgen
data_Lu(MnGe)2
_symmetry_space_group_name_H-M   'P 1'
_cell_length_a   6.12371019
_cell_length_b   6.12371019
_cell_length_c   6.12371019
_cell_angle_alpha   141.71630620
_cell_angle_beta   141.71630620
_cell_angle_gamma   55.25636711
_symmetry_Int_Tables_number   1
_chemical_formula_structural   Lu(MnGe)2
_chemical_formula_sum   'Lu1 Mn2 Ge2'
_cell_volume   87.50433651
_cell_formula_units_Z   1
loop_
 _symmetry_equiv_pos_site_id
 _symmetry_equiv_pos_as_xyz
  1  'x, y, z'
loop_
 _atom_site_type_symbol
 _atom_site_label
 _atom_site_symmetry_multiplicity
 _atom_site_fract_x
 _atom_site_fract_y
 _atom_site_fract_z
 _atom_site_occupancy
  Lu  Lu0  1  0.00000000  0.00000000  0.00000000  1
  Mn  Mn1  1  0.75000000  0.25000000  0.50000000  1
  Mn  Mn2  1  0.25000000  0.75000000  0.50000000  1
  Ge  Ge3  1  0.61238208  0.61238208  0.00000000  1
  Ge  Ge4  1  0.38761792  0.38761792  -0.00000000  1
