# generated using pymatgen
data_BaCd2Pt
_symmetry_space_group_name_H-M   'P 1'
_cell_length_a   4.48853430
_cell_length_b   6.08676878
_cell_length_c   8.34389966
_cell_angle_alpha   90.00000000
_cell_angle_beta   90.00000000
_cell_angle_gamma   111.63622981
_symmetry_Int_Tables_number   1
_chemical_formula_structural   BaCd2Pt
_chemical_formula_sum   'Ba2 Cd4 Pt2'
_cell_volume   211.89960879
_cell_formula_units_Z   2
loop_
 _symmetry_equiv_pos_site_id
 _symmetry_equiv_pos_as_xyz
  1  'x, y, z'
loop_
 _atom_site_type_symbol
 _atom_site_label
 _atom_site_symmetry_multiplicity
 _atom_site_fract_x
 _atom_site_fract_y
 _atom_site_fract_z
 _atom_site_occupancy
  Ba  Ba0  1  0.55764954  0.11529708  0.75000000  1
  Ba  Ba1  1  0.44235046  0.88470292  0.25000000  1
  Cd  Cd2  1  0.16090550  0.32181200  0.05635102  1
  Cd  Cd3  1  0.83909450  0.67818800  0.94364898  1
  Cd  Cd4  1  0.16090550  0.32181200  0.44364898  1
  Cd  Cd5  1  0.83909450  0.67818800  0.55635102  1
  Pt  Pt6  1  0.27787225  0.55574450  0.75000000  1
  Pt  Pt7  1  0.72212775  0.44425550  0.25000000  1
