# generated using pymatgen
data_HoGePd2
_symmetry_space_group_name_H-M   'P 1'
_cell_length_a   5.56113341
_cell_length_b   7.07010868
_cell_length_c   7.33354640
_cell_angle_alpha   90.00000000
_cell_angle_beta   90.00000000
_cell_angle_gamma   90.00000000
_symmetry_Int_Tables_number   1
_chemical_formula_structural   HoGePd2
_chemical_formula_sum   'Ho4 Ge4 Pd8'
_cell_volume   288.33903966
_cell_formula_units_Z   4
loop_
 _symmetry_equiv_pos_site_id
 _symmetry_equiv_pos_as_xyz
  1  'x, y, z'
loop_
 _atom_site_type_symbol
 _atom_site_label
 _atom_site_symmetry_multiplicity
 _atom_site_fract_x
 _atom_site_fract_y
 _atom_site_fract_z
 _atom_site_occupancy
  Ho  Ho0  1  0.14634140  0.75000000  0.52887085  1
  Ho  Ho1  1  0.85365860  0.25000000  0.47112915  1
  Ho  Ho2  1  0.64634140  0.25000000  0.97112915  1
  Ho  Ho3  1  0.35365860  0.75000000  0.02887085  1
  Ge  Ge4  1  0.85540969  0.75000000  0.87970159  1
  Ge  Ge5  1  0.14459031  0.25000000  0.12029841  1
  Ge  Ge6  1  0.35540969  0.25000000  0.62029841  1
  Ge  Ge7  1  0.64459031  0.75000000  0.37970159  1
  Pd  Pd8  1  0.58706741  0.55143548  0.68229617  1
  Pd  Pd9  1  0.41293259  0.44856452  0.31770383  1
  Pd  Pd10  1  0.08706741  0.44856452  0.81770383  1
  Pd  Pd11  1  0.41293259  0.05143548  0.31770383  1
  Pd  Pd12  1  0.91293259  0.55143548  0.18229617  1
  Pd  Pd13  1  0.58706741  0.94856452  0.68229617  1
  Pd  Pd14  1  0.91293259  0.94856452  0.18229617  1
  Pd  Pd15  1  0.08706741  0.05143548  0.81770383  1
