# generated using pymatgen
data_Co(PtO2)3
_symmetry_space_group_name_H-M   'P 1'
_cell_length_a   6.38989253
_cell_length_b   10.43247552
_cell_length_c   7.05692930
_cell_angle_alpha   90.00228327
_cell_angle_beta   90.00008345
_cell_angle_gamma   72.15669974
_symmetry_Int_Tables_number   1
_chemical_formula_structural   Co(PtO2)3
_chemical_formula_sum   'Co4 Pt12 O24'
_cell_volume   447.80315949
_cell_formula_units_Z   4
loop_
 _symmetry_equiv_pos_site_id
 _symmetry_equiv_pos_as_xyz
  1  'x, y, z'
loop_
 _atom_site_type_symbol
 _atom_site_label
 _atom_site_symmetry_multiplicity
 _atom_site_fract_x
 _atom_site_fract_y
 _atom_site_fract_z
 _atom_site_occupancy
  Co  Co0  1  0.50000433  -0.00000264  0.49999969  1
  Co  Co1  1  0.25000286  0.50000225  -0.00000057  1
  Co  Co2  1  0.75000126  0.50000393  -0.00000062  1
  Co  Co3  1  0.00000453  -0.00000242  0.49999937  1
  Pt  Pt4  1  0.74999704  0.50000899  0.49999961  1
  Pt  Pt5  1  0.49999965  0.00000038  -0.00000041  1
  Pt  Pt6  1  0.24999668  0.50000920  0.49999956  1
  Pt  Pt7  1  -0.00000047  0.00000037  -0.00000045  1
  Pt  Pt8  1  0.37499782  0.75004963  0.75001239  1
  Pt  Pt9  1  0.12500702  0.24994576  0.24999265  1
  Pt  Pt10  1  0.87499094  0.75005467  0.75000707  1
  Pt  Pt11  1  0.62500382  0.24994526  0.24999330  1
  Pt  Pt12  1  0.62500431  0.24994565  0.75000571  1
  Pt  Pt13  1  0.37499356  0.75005615  0.24999383  1
  Pt  Pt14  1  0.12500761  0.24994613  0.75000624  1
  Pt  Pt15  1  0.87499080  0.75005556  0.24999228  1
  O  O16  1  0.42687343  0.64627748  -0.00000905  1
  O  O17  1  0.17685438  0.14631052  0.49998915  1
  O  O18  1  0.92687479  0.64627633  -0.00000916  1
  O  O19  1  0.67685479  0.14630976  0.49998940  1
  O  O20  1  0.57314544  0.35368407  0.00000868  1
  O  O21  1  0.32312619  0.85372841  0.50000936  1
  O  O22  1  0.07314369  0.35368514  0.00000860  1
  O  O23  1  0.82312939  0.85372727  0.50000881  1
  O  O24  1  0.68655796  0.62703814  0.71465037  1
  O  O25  1  0.43650693  0.12700013  0.21467258  1
  O  O26  1  0.18655920  0.62703653  0.71464965  1
  O  O27  1  0.93650768  0.12699890  0.21467199  1
  O  O28  1  0.81343731  0.37296426  0.28534000  1
  O  O29  1  0.56349507  0.87299386  0.78533897  1
  O  O30  1  0.31343866  0.37296264  0.28533956  1
  O  O31  1  0.06349460  0.87299428  0.78534066  1
  O  O32  1  0.81343803  0.37296313  0.71464821  1
  O  O33  1  0.56349614  0.87299239  0.21464917  1
  O  O34  1  0.31343962  0.37296145  0.71464898  1
  O  O35  1  0.06349513  0.87299345  0.21464808  1
  O  O36  1  0.68655728  0.62703996  0.28536167  1
  O  O37  1  0.43650627  0.12700208  0.78534027  1
  O  O38  1  0.18655868  0.62703839  0.28536214  1
  O  O39  1  0.93650659  0.12700157  0.78534128  1
