# generated using pymatgen
data_GdZnGa
_symmetry_space_group_name_H-M   'P 1'
_cell_length_a   4.39427003
_cell_length_b   4.39427003
_cell_length_c   7.35255878
_cell_angle_alpha   90.00000000
_cell_angle_beta   90.00000000
_cell_angle_gamma   120.00002176
_symmetry_Int_Tables_number   1
_chemical_formula_structural   GdZnGa
_chemical_formula_sum   'Gd2 Zn2 Ga2'
_cell_volume   122.95396056
_cell_formula_units_Z   2
loop_
 _symmetry_equiv_pos_site_id
 _symmetry_equiv_pos_as_xyz
  1  'x, y, z'
loop_
 _atom_site_type_symbol
 _atom_site_label
 _atom_site_symmetry_multiplicity
 _atom_site_fract_x
 _atom_site_fract_y
 _atom_site_fract_z
 _atom_site_occupancy
  Gd  Gd0  1  -0.00000000  -0.00000000  0.50000000  1
  Gd  Gd1  1  -0.00000000  -0.00000000  -0.00000000  1
  Zn  Zn2  1  0.33333300  0.66666700  0.75000200  1
  Zn  Zn3  1  0.66666700  0.33333300  0.24999800  1
  Ga  Ga4  1  0.33333300  0.66666700  0.24999800  1
  Ga  Ga5  1  0.66666700  0.33333300  0.75000200  1
