# generated using pymatgen
data_Y2AlFe3
_symmetry_space_group_name_H-M   'P 1'
_cell_length_a   5.29127047
_cell_length_b   5.29127047
_cell_length_c   5.32791870
_cell_angle_alpha   89.99045056
_cell_angle_beta   60.25134051
_cell_angle_gamma   120.01317317
_symmetry_Int_Tables_number   1
_chemical_formula_structural   Y2AlFe3
_chemical_formula_sum   'Y2 Al1 Fe3'
_cell_volume   105.84746440
_cell_formula_units_Z   1
loop_
 _symmetry_equiv_pos_site_id
 _symmetry_equiv_pos_as_xyz
  1  'x, y, z'
loop_
 _atom_site_type_symbol
 _atom_site_label
 _atom_site_symmetry_multiplicity
 _atom_site_fract_x
 _atom_site_fract_y
 _atom_site_fract_z
 _atom_site_occupancy
  Y  Y0  1  0.50559903  0.75275782  0.74164314  1
  Y  Y1  1  0.99440097  0.99724218  0.00835686  1
  Al  Al2  1  0.75000000  0.37500000  0.87500000  1
  Fe  Fe3  1  0.25000000  0.37500000  0.37500000  1
  Fe  Fe4  1  0.25000000  0.87500000  0.37500000  1
  Fe  Fe5  1  0.75000000  0.37500000  0.37500000  1
