# generated using pymatgen
data_VPt
_symmetry_space_group_name_H-M   'P 1'
_cell_length_a   4.39269201
_cell_length_b   2.68240384
_cell_length_c   4.77219861
_cell_angle_alpha   90.00000000
_cell_angle_beta   90.00000000
_cell_angle_gamma   90.00000000
_symmetry_Int_Tables_number   1
_chemical_formula_structural   VPt
_chemical_formula_sum   'V2 Pt2'
_cell_volume   56.23069174
_cell_formula_units_Z   2
loop_
 _symmetry_equiv_pos_site_id
 _symmetry_equiv_pos_as_xyz
  1  'x, y, z'
loop_
 _atom_site_type_symbol
 _atom_site_label
 _atom_site_symmetry_multiplicity
 _atom_site_fract_x
 _atom_site_fract_y
 _atom_site_fract_z
 _atom_site_occupancy
  V  V0  1  0.25000000  -0.00000000  0.17051655  1
  V  V1  1  0.75000000  -0.00000000  0.82948345  1
  Pt  Pt2  1  0.25000000  0.50000000  0.68046875  1
  Pt  Pt3  1  0.75000000  0.50000000  0.31953125  1
