# generated using pymatgen
data_CrO2
_symmetry_space_group_name_H-M   'P 1'
_cell_length_a   4.26593859
_cell_length_b   4.87969859
_cell_length_c   5.36925859
_cell_angle_alpha   90.00026880
_cell_angle_beta   90.00008970
_cell_angle_gamma   90.00420590
_symmetry_Int_Tables_number   1
_chemical_formula_structural   CrO2
_chemical_formula_sum   'Cr4 O8'
_cell_volume   111.76914188
_cell_formula_units_Z   4
loop_
 _symmetry_equiv_pos_site_id
 _symmetry_equiv_pos_as_xyz
  1  'x, y, z'
loop_
 _atom_site_type_symbol
 _atom_site_label
 _atom_site_symmetry_multiplicity
 _atom_site_fract_x
 _atom_site_fract_y
 _atom_site_fract_z
 _atom_site_occupancy
  Cr  Cr0  1  0.49999960  0.24999826  0.64555140  1
  Cr  Cr1  1  0.00000592  0.75000118  0.85435828  1
  Cr  Cr2  1  0.49999542  0.75000406  0.35442615  1
  Cr  Cr3  1  0.00000354  0.24999693  0.14566615  1
  O  O4  1  0.76457359  0.08291808  0.88288370  1
  O  O5  1  0.73534431  0.58286581  0.61705543  1
  O  O6  1  0.26466407  0.91713349  0.61705747  1
  O  O7  1  0.23543442  0.41708316  0.88288617  1
  O  O8  1  0.23541220  0.91710508  0.11715700  1
  O  O9  1  0.26466384  0.41713154  0.38290162  1
  O  O10  1  0.73532427  0.08287053  0.38290044  1
  O  O11  1  0.76457981  0.58289388  0.11715720  1
