# generated using pymatgen
data_Gd(BC)2
_symmetry_space_group_name_H-M   'P 1'
_cell_length_a   5.34757243
_cell_length_b   5.34757243
_cell_length_c   3.66517808
_cell_angle_alpha   90.00000000
_cell_angle_beta   90.00000000
_cell_angle_gamma   90.00000000
_symmetry_Int_Tables_number   1
_chemical_formula_structural   Gd(BC)2
_chemical_formula_sum   'Gd2 B4 C4'
_cell_volume   104.81137820
_cell_formula_units_Z   2
loop_
 _symmetry_equiv_pos_site_id
 _symmetry_equiv_pos_as_xyz
  1  'x, y, z'
loop_
 _atom_site_type_symbol
 _atom_site_label
 _atom_site_symmetry_multiplicity
 _atom_site_fract_x
 _atom_site_fract_y
 _atom_site_fract_z
 _atom_site_occupancy
  Gd  Gd0  1  0.50000000  0.50000000  0.00000000  1
  Gd  Gd1  1  -0.00000000  -0.00000000  0.00000000  1
  B  B2  1  0.86332442  0.36332442  0.50000000  1
  B  B3  1  0.13667558  0.63667558  0.50000000  1
  B  B4  1  0.36332442  0.13667558  0.50000000  1
  B  B5  1  0.63667558  0.86332442  0.50000000  1
  C  C6  1  0.66201525  0.16201525  0.50000000  1
  C  C7  1  0.33798475  0.83798475  0.50000000  1
  C  C8  1  0.16201525  0.33798475  0.50000000  1
  C  C9  1  0.83798475  0.66201525  0.50000000  1
