# generated using pymatgen
data_ScGeRh
_symmetry_space_group_name_H-M   'P 1'
_cell_length_a   4.13037715
_cell_length_b   6.54834278
_cell_length_c   7.40257833
_cell_angle_alpha   90.00000000
_cell_angle_beta   90.00000000
_cell_angle_gamma   90.00000000
_symmetry_Int_Tables_number   1
_chemical_formula_structural   ScGeRh
_chemical_formula_sum   'Sc4 Ge4 Rh4'
_cell_volume   200.21846429
_cell_formula_units_Z   4
loop_
 _symmetry_equiv_pos_site_id
 _symmetry_equiv_pos_as_xyz
  1  'x, y, z'
loop_
 _atom_site_type_symbol
 _atom_site_label
 _atom_site_symmetry_multiplicity
 _atom_site_fract_x
 _atom_site_fract_y
 _atom_site_fract_z
 _atom_site_occupancy
  Sc  Sc0  1  0.75000000  0.48773315  0.19509611  1
  Sc  Sc1  1  0.75000000  0.98773315  0.30490389  1
  Sc  Sc2  1  0.25000000  0.51226685  0.80490389  1
  Sc  Sc3  1  0.25000000  0.01226685  0.69509611  1
  Ge  Ge4  1  0.75000000  0.22129164  0.88564924  1
  Ge  Ge5  1  0.75000000  0.72129164  0.61435076  1
  Ge  Ge6  1  0.25000000  0.77870836  0.11435076  1
  Ge  Ge7  1  0.25000000  0.27870836  0.38564924  1
  Rh  Rh8  1  0.75000000  0.34389431  0.56181409  1
  Rh  Rh9  1  0.75000000  0.84389431  0.93818591  1
  Rh  Rh10  1  0.25000000  0.65610569  0.43818591  1
  Rh  Rh11  1  0.25000000  0.15610569  0.06181409  1
