# generated using pymatgen
data_Sr(InP)2
_symmetry_space_group_name_H-M   'P 1'
_cell_length_a   4.12380303
_cell_length_b   4.12380303
_cell_length_c   17.95234792
_cell_angle_alpha   90.00000000
_cell_angle_beta   90.00000000
_cell_angle_gamma   120.00000754
_symmetry_Int_Tables_number   1
_chemical_formula_structural   Sr(InP)2
_chemical_formula_sum   'Sr2 In4 P4'
_cell_volume   264.39161755
_cell_formula_units_Z   2
loop_
 _symmetry_equiv_pos_site_id
 _symmetry_equiv_pos_as_xyz
  1  'x, y, z'
loop_
 _atom_site_type_symbol
 _atom_site_label
 _atom_site_symmetry_multiplicity
 _atom_site_fract_x
 _atom_site_fract_y
 _atom_site_fract_z
 _atom_site_occupancy
  Sr  Sr0  1  0.00000000  -0.00000000  -0.00000000  1
  Sr  Sr1  1  0.00000000  -0.00000000  0.50000000  1
  In  In2  1  0.66666700  0.33333300  0.17219800  1
  In  In3  1  0.33333300  0.66666700  0.82780200  1
  In  In4  1  0.33333300  0.66666700  0.67219800  1
  In  In5  1  0.66666700  0.33333300  0.32780200  1
  P  P6  1  0.33333300  0.66666700  0.10907399  1
  P  P7  1  0.66666700  0.33333300  0.89092601  1
  P  P8  1  0.66666700  0.33333300  0.60907399  1
  P  P9  1  0.33333300  0.66666700  0.39092601  1
