# generated using pymatgen
data_NaAlF4
_symmetry_space_group_name_H-M   'P 1'
_cell_length_a   3.61523533
_cell_length_b   5.22842785
_cell_length_c   7.64015678
_cell_angle_alpha   90.00000000
_cell_angle_beta   103.68560941
_cell_angle_gamma   90.00000000
_symmetry_Int_Tables_number   1
_chemical_formula_structural   NaAlF4
_chemical_formula_sum   'Na2 Al2 F8'
_cell_volume   140.31409561
_cell_formula_units_Z   2
loop_
 _symmetry_equiv_pos_site_id
 _symmetry_equiv_pos_as_xyz
  1  'x, y, z'
loop_
 _atom_site_type_symbol
 _atom_site_label
 _atom_site_symmetry_multiplicity
 _atom_site_fract_x
 _atom_site_fract_y
 _atom_site_fract_z
 _atom_site_occupancy
  Na  Na0  1  0.69571792  0.75000000  0.39143483  1
  Na  Na1  1  0.30428208  0.25000000  0.60856517  1
  Al  Al2  1  0.91465054  0.75000000  0.82930008  1
  Al  Al3  1  0.08534946  0.25000000  0.17069992  1
  F  F4  1  0.82927510  0.98794356  0.65855020  1
  F  F5  1  0.17072490  0.01205644  0.34144980  1
  F  F6  1  0.82927510  0.51205644  0.65855020  1
  F  F7  1  0.17072490  0.48794356  0.34144980  1
  F  F8  1  0.00000000  0.50000000  0.00000000  1
  F  F9  1  0.00000000  -0.00000000  0.00000000  1
  F  F10  1  0.41880264  0.75000000  0.83760428  1
  F  F11  1  0.58119736  0.25000000  0.16239572  1
