# generated using pymatgen
data_La2SnS5
_symmetry_space_group_name_H-M   'P 1'
_cell_length_a   4.01898181
_cell_length_b   7.98390196
_cell_length_c   11.33406190
_cell_angle_alpha   90.00000000
_cell_angle_beta   90.00000000
_cell_angle_gamma   90.00000000
_symmetry_Int_Tables_number   1
_chemical_formula_structural   La2SnS5
_chemical_formula_sum   'La4 Sn2 S10'
_cell_volume   363.67782080
_cell_formula_units_Z   2
loop_
 _symmetry_equiv_pos_site_id
 _symmetry_equiv_pos_as_xyz
  1  'x, y, z'
loop_
 _atom_site_type_symbol
 _atom_site_label
 _atom_site_symmetry_multiplicity
 _atom_site_fract_x
 _atom_site_fract_y
 _atom_site_fract_z
 _atom_site_occupancy
  La  La0  1  0.50000000  0.57506348  0.16886442  1
  La  La1  1  0.50000000  0.42493652  0.83113558  1
  La  La2  1  0.50000000  0.07506348  0.33113558  1
  La  La3  1  0.50000000  0.92493652  0.66886442  1
  Sn  Sn4  1  -0.00000000  0.50000000  0.50000000  1
  Sn  Sn5  1  -0.00000000  0.00000000  0.00000000  1
  S  S6  1  0.50000000  0.68723513  0.43068961  1
  S  S7  1  0.50000000  0.31276487  0.56931039  1
  S  S8  1  0.50000000  0.18723513  0.06931039  1
  S  S9  1  0.50000000  0.81276487  0.93068961  1
  S  S10  1  0.00000000  0.85765615  0.20155545  1
  S  S11  1  -0.00000000  0.14234385  0.79844455  1
  S  S12  1  0.00000000  0.50000000  0.00000000  1
  S  S13  1  -0.00000000  0.00000000  0.50000000  1
  S  S14  1  -0.00000000  0.64234385  0.70155545  1
  S  S15  1  0.00000000  0.35765615  0.29844455  1
