# generated using pymatgen
data_SrSn3
_symmetry_space_group_name_H-M   'P 1'
_cell_length_a   12.19202952
_cell_length_b   12.19202952
_cell_length_c   12.19202981
_cell_angle_alpha   32.98655770
_cell_angle_beta   32.98655770
_cell_angle_gamma   32.98656085
_symmetry_Int_Tables_number   1
_chemical_formula_structural   SrSn3
_chemical_formula_sum   'Sr4 Sn12'
_cell_volume   478.04654434
_cell_formula_units_Z   4
loop_
 _symmetry_equiv_pos_site_id
 _symmetry_equiv_pos_as_xyz
  1  'x, y, z'
loop_
 _atom_site_type_symbol
 _atom_site_label
 _atom_site_symmetry_multiplicity
 _atom_site_fract_x
 _atom_site_fract_y
 _atom_site_fract_z
 _atom_site_occupancy
  Sr  Sr0  1  0.86106513  0.86106513  0.86106513  1
  Sr  Sr1  1  0.13893487  0.13893487  0.13893487  1
  Sr  Sr2  1  0.70216458  0.70216458  0.70216458  1
  Sr  Sr3  1  0.29783542  0.29783542  0.29783542  1
  Sn  Sn4  1  0.26124365  0.79800112  0.79800112  1
  Sn  Sn5  1  0.79800112  0.79800112  0.26124365  1
  Sn  Sn6  1  0.83897956  0.40280390  0.40280390  1
  Sn  Sn7  1  0.40280390  0.40280390  0.83897956  1
  Sn  Sn8  1  0.40280390  0.83897956  0.40280390  1
  Sn  Sn9  1  0.59719610  0.16102044  0.59719610  1
  Sn  Sn10  1  0.16102044  0.59719610  0.59719610  1
  Sn  Sn11  1  0.59719610  0.59719610  0.16102044  1
  Sn  Sn12  1  0.79800112  0.26124365  0.79800112  1
  Sn  Sn13  1  0.20199888  0.73875635  0.20199888  1
  Sn  Sn14  1  0.20199888  0.20199888  0.73875635  1
  Sn  Sn15  1  0.73875635  0.20199888  0.20199888  1
