# generated using pymatgen
data_NdGaPd
_symmetry_space_group_name_H-M   'P 1'
_cell_length_a   4.57307330
_cell_length_b   7.21935273
_cell_length_c   7.60464849
_cell_angle_alpha   89.99299815
_cell_angle_beta   90.00000000
_cell_angle_gamma   90.00000000
_symmetry_Int_Tables_number   1
_chemical_formula_structural   NdGaPd
_chemical_formula_sum   'Nd4 Ga4 Pd4'
_cell_volume   251.06464858
_cell_formula_units_Z   4
loop_
 _symmetry_equiv_pos_site_id
 _symmetry_equiv_pos_as_xyz
  1  'x, y, z'
loop_
 _atom_site_type_symbol
 _atom_site_label
 _atom_site_symmetry_multiplicity
 _atom_site_fract_x
 _atom_site_fract_y
 _atom_site_fract_z
 _atom_site_occupancy
  Nd  Nd0  1  0.25000000  0.02174293  0.69733376  1
  Nd  Nd1  1  0.25000000  0.52173240  0.80266660  1
  Nd  Nd2  1  0.75000000  0.97825585  0.30262087  1
  Nd  Nd3  1  0.75000000  0.47826567  0.19735368  1
  Ga  Ga4  1  0.25000000  0.17537145  0.07997638  1
  Ga  Ga5  1  0.25000000  0.67539404  0.42003479  1
  Ga  Ga6  1  0.75000000  0.82462156  0.91995518  1
  Ga  Ga7  1  0.75000000  0.32461328  0.57998451  1
  Pd  Pd8  1  0.25000000  0.29320283  0.40780788  1
  Pd  Pd9  1  0.25000000  0.79322465  0.09223902  1
  Pd  Pd10  1  0.75000000  0.70678016  0.59225693  1
  Pd  Pd11  1  0.75000000  0.20679616  0.90776839  1
