# generated using pymatgen
data_HoPS
_symmetry_space_group_name_H-M   'P 1'
_cell_length_a   5.29446264
_cell_length_b   5.33265431
_cell_length_c   16.64293828
_cell_angle_alpha   90.00000000
_cell_angle_beta   90.00000000
_cell_angle_gamma   90.00000000
_symmetry_Int_Tables_number   1
_chemical_formula_structural   HoPS
_chemical_formula_sum   'Ho8 P8 S8'
_cell_volume   469.88904727
_cell_formula_units_Z   8
loop_
 _symmetry_equiv_pos_site_id
 _symmetry_equiv_pos_as_xyz
  1  'x, y, z'
loop_
 _atom_site_type_symbol
 _atom_site_label
 _atom_site_symmetry_multiplicity
 _atom_site_fract_x
 _atom_site_fract_y
 _atom_site_fract_z
 _atom_site_occupancy
  Ho  Ho0  1  0.25000000  0.48374318  0.36186452  1
  Ho  Ho1  1  0.25000000  0.98374318  0.13813548  1
  Ho  Ho2  1  0.75000000  0.51625682  0.63813548  1
  Ho  Ho3  1  0.75000000  0.01625682  0.86186452  1
  Ho  Ho4  1  0.25000000  0.01376993  0.64658642  1
  Ho  Ho5  1  0.25000000  0.51376993  0.85341358  1
  Ho  Ho6  1  0.75000000  0.98623007  0.35341358  1
  Ho  Ho7  1  0.75000000  0.48623007  0.14658642  1
  P  P8  1  0.03783338  0.29400954  0.99706240  1
  P  P9  1  0.46216662  0.79400954  0.50293760  1
  P  P10  1  0.53783338  0.70599046  0.00293760  1
  P  P11  1  0.96216662  0.20599046  0.49706240  1
  P  P12  1  0.96216662  0.70599046  0.00293760  1
  P  P13  1  0.53783338  0.20599046  0.49706240  1
  P  P14  1  0.46216662  0.29400954  0.99706240  1
  P  P15  1  0.03783338  0.79400954  0.50293760  1
  S  S16  1  0.25000000  0.48497240  0.18898090  1
  S  S17  1  0.25000000  0.98497240  0.31101910  1
  S  S18  1  0.75000000  0.51502760  0.81101910  1
  S  S19  1  0.75000000  0.01502760  0.68898090  1
  S  S20  1  0.25000000  0.01019597  0.81582066  1
  S  S21  1  0.25000000  0.51019597  0.68417934  1
  S  S22  1  0.75000000  0.98980403  0.18417934  1
  S  S23  1  0.75000000  0.48980403  0.31582066  1
