# generated using pymatgen
data_LuAlPt
_symmetry_space_group_name_H-M   'P 1'
_cell_length_a   4.33757020
_cell_length_b   6.73262878
_cell_length_c   7.66907048
_cell_angle_alpha   90.00000000
_cell_angle_beta   90.00000000
_cell_angle_gamma   90.00000000
_symmetry_Int_Tables_number   1
_chemical_formula_structural   LuAlPt
_chemical_formula_sum   'Lu4 Al4 Pt4'
_cell_volume   223.96178222
_cell_formula_units_Z   4
loop_
 _symmetry_equiv_pos_site_id
 _symmetry_equiv_pos_as_xyz
  1  'x, y, z'
loop_
 _atom_site_type_symbol
 _atom_site_label
 _atom_site_symmetry_multiplicity
 _atom_site_fract_x
 _atom_site_fract_y
 _atom_site_fract_z
 _atom_site_occupancy
  Lu  Lu0  1  0.25000000  0.02860014  0.68066653  1
  Lu  Lu1  1  0.25000000  0.52860014  0.81933347  1
  Lu  Lu2  1  0.75000000  0.97139986  0.31933347  1
  Lu  Lu3  1  0.75000000  0.47139986  0.18066653  1
  Al  Al4  1  0.25000000  0.14360253  0.06245692  1
  Al  Al5  1  0.25000000  0.64360253  0.43754308  1
  Al  Al6  1  0.75000000  0.85639747  0.93754308  1
  Al  Al7  1  0.75000000  0.35639747  0.56245692  1
  Pt  Pt8  1  0.25000000  0.26744806  0.38122323  1
  Pt  Pt9  1  0.25000000  0.76744806  0.11877677  1
  Pt  Pt10  1  0.75000000  0.73255194  0.61877677  1
  Pt  Pt11  1  0.75000000  0.23255194  0.88122323  1
