# generated using pymatgen
data_CeNiP
_symmetry_space_group_name_H-M   'P 1'
_cell_length_a   3.94929185
_cell_length_b   3.94929185
_cell_length_c   15.97105821
_cell_angle_alpha   90.00000000
_cell_angle_beta   90.00000000
_cell_angle_gamma   120.00001353
_symmetry_Int_Tables_number   1
_chemical_formula_structural   CeNiP
_chemical_formula_sum   'Ce4 Ni4 P4'
_cell_volume   215.72611507
_cell_formula_units_Z   4
loop_
 _symmetry_equiv_pos_site_id
 _symmetry_equiv_pos_as_xyz
  1  'x, y, z'
loop_
 _atom_site_type_symbol
 _atom_site_label
 _atom_site_symmetry_multiplicity
 _atom_site_fract_x
 _atom_site_fract_y
 _atom_site_fract_z
 _atom_site_occupancy
  Ce  Ce0  1  0.00000000  -0.00000000  0.50000000  1
  Ce  Ce1  1  0.00000000  -0.00000000  -0.00000000  1
  Ce  Ce2  1  0.00000000  -0.00000000  0.25000000  1
  Ce  Ce3  1  0.00000000  -0.00000000  0.75000000  1
  Ni  Ni4  1  0.33333300  0.66666700  0.37391970  1
  Ni  Ni5  1  0.66666700  0.33333300  0.62608030  1
  Ni  Ni6  1  0.66666700  0.33333300  0.87391970  1
  Ni  Ni7  1  0.33333300  0.66666700  0.12608030  1
  P  P8  1  0.33333300  0.66666700  0.87419872  1
  P  P9  1  0.66666700  0.33333300  0.12580128  1
  P  P10  1  0.66666700  0.33333300  0.37419872  1
  P  P11  1  0.33333300  0.66666700  0.62580128  1
