# generated using pymatgen
data_PuB4Os
_symmetry_space_group_name_H-M   'P 1'
_cell_length_a   6.00692454
_cell_length_b   6.00692454
_cell_length_c   3.54665479
_cell_angle_alpha   90.00000000
_cell_angle_beta   90.00000000
_cell_angle_gamma   103.98154840
_symmetry_Int_Tables_number   1
_chemical_formula_structural   PuB4Os
_chemical_formula_sum   'Pu2 B8 Os2'
_cell_volume   124.18302569
_cell_formula_units_Z   2
loop_
 _symmetry_equiv_pos_site_id
 _symmetry_equiv_pos_as_xyz
  1  'x, y, z'
loop_
 _atom_site_type_symbol
 _atom_site_label
 _atom_site_symmetry_multiplicity
 _atom_site_fract_x
 _atom_site_fract_y
 _atom_site_fract_z
 _atom_site_occupancy
  Pu  Pu0  1  0.30011903  0.69988097  -0.00000000  1
  Pu  Pu1  1  0.69988097  0.30011903  -0.00000000  1
  B  B2  1  0.37863200  0.06283819  0.50000000  1
  B  B3  1  0.62136800  0.93716181  0.50000000  1
  B  B4  1  0.06283819  0.37863200  0.50000000  1
  B  B5  1  0.93716181  0.62136800  0.50000000  1
  B  B6  1  0.37574437  0.37574437  0.50000000  1
  B  B7  1  0.62425563  0.62425563  0.50000000  1
  B  B8  1  0.09144915  0.90855085  0.50000000  1
  B  B9  1  0.90855085  0.09144915  0.50000000  1
  Os  Os10  1  0.18619812  0.18619812  -0.00000000  1
  Os  Os11  1  0.81380188  0.81380188  0.00000000  1
