# generated using pymatgen
data_K5Pr4Si4O16F
_symmetry_space_group_name_H-M   'P 1'
_cell_length_a   9.18827929
_cell_length_b   9.18827929
_cell_length_c   9.18827929
_cell_angle_alpha   95.18328334
_cell_angle_beta   95.18328334
_cell_angle_gamma   145.01637796
_symmetry_Int_Tables_number   1
_chemical_formula_structural   K5Pr4Si4O16F
_chemical_formula_sum   'K5 Pr4 Si4 O16 F1'
_cell_volume   424.18527045
_cell_formula_units_Z   1
loop_
 _symmetry_equiv_pos_site_id
 _symmetry_equiv_pos_as_xyz
  1  'x, y, z'
loop_
 _atom_site_type_symbol
 _atom_site_label
 _atom_site_symmetry_multiplicity
 _atom_site_fract_x
 _atom_site_fract_y
 _atom_site_fract_z
 _atom_site_occupancy
  K  K0  1  0.59292947  0.10271188  0.69472912  1
  K  K1  1  0.40798276  0.89820135  0.30527088  1
  K  K2  1  0.10179865  0.40707053  0.50978141  1
  K  K3  1  0.89728812  0.59201724  0.49021859  1
  K  K4  1  0.00000000  0.00000000  -0.00000000  1
  Pr  Pr5  1  0.59980412  0.66661311  0.30154335  1
  Pr  Pr6  1  0.36507075  0.29826177  0.69845665  1
  Pr  Pr7  1  0.70173823  0.40019588  0.06680899  1
  Pr  Pr8  1  0.33338689  0.63492925  0.93319101  1
  Si  Si9  1  0.76435201  0.90533668  0.65035263  1
  Si  Si10  1  0.25498405  0.11399938  0.34964737  1
  Si  Si11  1  0.88600062  0.23564799  0.14098467  1
  Si  Si12  1  0.09466332  0.74501595  0.85901533  1
  O  O13  1  0.61917761  0.87959548  0.50705677  1
  O  O14  1  0.37253771  0.11212084  0.49294323  1
  O  O15  1  0.88787916  0.38082239  0.26041788  1
  O  O16  1  0.12040452  0.62746229  0.73958212  1
  O  O17  1  0.56406707  0.71016982  0.75171261  1
  O  O18  1  0.95845721  0.81235446  0.24828739  1
  O  O19  1  0.18764554  0.43593293  0.14610375  1
  O  O20  1  0.28983018  0.04154279  0.85389625  1
  O  O21  1  0.04069799  0.21079083  0.75924430  1
  O  O22  1  0.45154554  0.28145269  0.24075570  1
  O  O23  1  0.71854731  0.95930201  0.17009284  1
  O  O24  1  0.78920917  0.54845446  0.82990716  1
  O  O25  1  0.85680640  0.83011618  0.57334646  1
  O  O26  1  0.25676872  0.28345994  0.42665354  1
  O  O27  1  0.71654006  0.14319360  0.97330878  1
  O  O28  1  0.16988382  0.74323128  0.02669122  1
  F  F29  1  0.50000000  0.50000000  -0.00000000  1
