# generated using pymatgen
data_NdPS
_symmetry_space_group_name_H-M   'P 1'
_cell_length_a   5.51681879
_cell_length_b   5.58283344
_cell_length_c   17.18757767
_cell_angle_alpha   90.00000000
_cell_angle_beta   90.00000000
_cell_angle_gamma   90.00000000
_symmetry_Int_Tables_number   1
_chemical_formula_structural   NdPS
_chemical_formula_sum   'Nd8 P8 S8'
_cell_volume   529.36846197
_cell_formula_units_Z   8
loop_
 _symmetry_equiv_pos_site_id
 _symmetry_equiv_pos_as_xyz
  1  'x, y, z'
loop_
 _atom_site_type_symbol
 _atom_site_label
 _atom_site_symmetry_multiplicity
 _atom_site_fract_x
 _atom_site_fract_y
 _atom_site_fract_z
 _atom_site_occupancy
  Nd  Nd0  1  0.25000000  0.48325827  0.36248670  1
  Nd  Nd1  1  0.25000000  0.98325827  0.13751330  1
  Nd  Nd2  1  0.75000000  0.51674173  0.63751330  1
  Nd  Nd3  1  0.75000000  0.01674173  0.86248670  1
  Nd  Nd4  1  0.25000000  0.01629014  0.64802553  1
  Nd  Nd5  1  0.25000000  0.51629014  0.85197447  1
  Nd  Nd6  1  0.75000000  0.98370986  0.35197447  1
  Nd  Nd7  1  0.75000000  0.48370986  0.14802553  1
  P  P8  1  0.04584862  0.30585568  0.99721755  1
  P  P9  1  0.45415138  0.80585568  0.50278245  1
  P  P10  1  0.54584862  0.69414432  0.00278245  1
  P  P11  1  0.95415138  0.19414432  0.49721755  1
  P  P12  1  0.95415138  0.69414432  0.00278245  1
  P  P13  1  0.54584862  0.19414432  0.49721755  1
  P  P14  1  0.45415138  0.30585568  0.99721755  1
  P  P15  1  0.04584862  0.80585568  0.50278245  1
  S  S16  1  0.25000000  0.48486532  0.18919788  1
  S  S17  1  0.25000000  0.98486532  0.31080212  1
  S  S18  1  0.75000000  0.51513468  0.81080212  1
  S  S19  1  0.75000000  0.01513468  0.68919788  1
  S  S20  1  0.25000000  0.01209855  0.81737907  1
  S  S21  1  0.25000000  0.51209855  0.68262093  1
  S  S22  1  0.75000000  0.98790145  0.18262093  1
  S  S23  1  0.75000000  0.48790145  0.31737907  1
