# generated using pymatgen
data_Tm(BC)2
_symmetry_space_group_name_H-M   'P 1'
_cell_length_a   3.47830307
_cell_length_b   5.30912476
_cell_length_c   5.30912476
_cell_angle_alpha   90.00000000
_cell_angle_beta   90.00000000
_cell_angle_gamma   90.00000000
_symmetry_Int_Tables_number   1
_chemical_formula_structural   Tm(BC)2
_chemical_formula_sum   'Tm2 B4 C4'
_cell_volume   98.04225286
_cell_formula_units_Z   2
loop_
 _symmetry_equiv_pos_site_id
 _symmetry_equiv_pos_as_xyz
  1  'x, y, z'
loop_
 _atom_site_type_symbol
 _atom_site_label
 _atom_site_symmetry_multiplicity
 _atom_site_fract_x
 _atom_site_fract_y
 _atom_site_fract_z
 _atom_site_occupancy
  Tm  Tm0  1  -0.00000000  0.50000000  0.50000000  1
  Tm  Tm1  1  -0.00000000  -0.00000000  0.00000000  1
  B  B2  1  0.50000000  0.63583276  0.13583276  1
  B  B3  1  0.50000000  0.86416724  0.63583276  1
  B  B4  1  0.50000000  0.36416724  0.86416724  1
  B  B5  1  0.50000000  0.13583276  0.36416724  1
  C  C6  1  0.50000000  0.66286601  0.83713399  1
  C  C7  1  0.50000000  0.83713399  0.33713399  1
  C  C8  1  0.50000000  0.16286601  0.66286601  1
  C  C9  1  0.50000000  0.33713399  0.16286601  1
