# generated using pymatgen
data_EuTiO3
_symmetry_space_group_name_H-M   'P 1'
_cell_length_a   5.52546634
_cell_length_b   5.52540424
_cell_length_c   5.52540684
_cell_angle_alpha   89.08324080
_cell_angle_beta   120.53021525
_cell_angle_gamma   120.53019435
_symmetry_Int_Tables_number   1
_chemical_formula_structural   EuTiO3
_chemical_formula_sum   'Eu2 Ti2 O6'
_cell_volume   118.31253652
_cell_formula_units_Z   2
loop_
 _symmetry_equiv_pos_site_id
 _symmetry_equiv_pos_as_xyz
  1  'x, y, z'
loop_
 _atom_site_type_symbol
 _atom_site_label
 _atom_site_symmetry_multiplicity
 _atom_site_fract_x
 _atom_site_fract_y
 _atom_site_fract_z
 _atom_site_occupancy
  Eu  Eu0  1  0.49999893  0.24999742  0.74999786  1
  Eu  Eu1  1  0.50000107  0.75000258  0.25000214  1
  Ti  Ti2  1  -0.00000000  0.50000000  0.50000000  1
  Ti  Ti3  1  -0.00000000  -0.00000000  0.00000000  1
  O  O4  1  0.00000153  0.75000708  0.74999627  1
  O  O5  1  -0.00000153  0.24999292  0.25000373  1
  O  O6  1  0.08413467  0.79206537  0.29206346  1
  O  O7  1  0.91586533  0.20793463  0.70793654  1
  O  O8  1  0.50000211  0.70793703  0.79206573  1
  O  O9  1  0.49999789  0.29206297  0.20793427  1
