# generated using pymatgen
data_Ag8SnSe6
_symmetry_space_group_name_H-M   'P 1'
_cell_length_a   7.83563837
_cell_length_b   8.05482522
_cell_length_c   11.06726262
_cell_angle_alpha   90.00000000
_cell_angle_beta   90.00000000
_cell_angle_gamma   90.00000000
_symmetry_Int_Tables_number   1
_chemical_formula_structural   Ag8SnSe6
_chemical_formula_sum   'Ag16 Sn2 Se12'
_cell_volume   698.50693305
_cell_formula_units_Z   2
loop_
 _symmetry_equiv_pos_site_id
 _symmetry_equiv_pos_as_xyz
  1  'x, y, z'
loop_
 _atom_site_type_symbol
 _atom_site_label
 _atom_site_symmetry_multiplicity
 _atom_site_fract_x
 _atom_site_fract_y
 _atom_site_fract_z
 _atom_site_occupancy
  Ag  Ag0  1  0.62282707  0.50000000  0.53833022  1
  Ag  Ag1  1  0.70069603  0.50000000  0.96466217  1
  Ag  Ag2  1  0.29930397  0.00000000  0.46466217  1
  Ag  Ag3  1  0.83091813  0.77512629  0.13531228  1
  Ag  Ag4  1  0.47118689  0.80915184  0.26095011  1
  Ag  Ag5  1  0.52881311  0.69084816  0.76095011  1
  Ag  Ag6  1  0.83091813  0.22487371  0.13531228  1
  Ag  Ag7  1  0.16908187  0.27512629  0.63531228  1
  Ag  Ag8  1  0.16908187  0.72487371  0.63531228  1
  Ag  Ag9  1  0.52881311  0.30915184  0.76095011  1
  Ag  Ag10  1  0.88465055  0.21288606  0.86506908  1
  Ag  Ag11  1  0.11534945  0.28711394  0.36506908  1
  Ag  Ag12  1  0.11534945  0.71288606  0.36506908  1
  Ag  Ag13  1  0.88465055  0.78711394  0.86506908  1
  Ag  Ag14  1  0.47118689  0.19084816  0.26095011  1
  Ag  Ag15  1  0.37717293  0.00000000  0.03833022  1
  Sn  Sn16  1  0.24691577  0.50000000  0.01613311  1
  Sn  Sn17  1  0.75308423  0.00000000  0.51613311  1
  Se  Se18  1  0.29080804  0.50000000  0.49909344  1
  Se  Se19  1  0.70919196  0.00000000  0.99909344  1
  Se  Se20  1  0.81042323  0.50000000  0.74260096  1
  Se  Se21  1  0.18957677  0.00000000  0.24260096  1
  Se  Se22  1  0.50574970  0.50000000  0.15258491  1
  Se  Se23  1  0.49425030  0.00000000  0.65258491  1
  Se  Se24  1  0.00259837  0.50000000  0.16653295  1
  Se  Se25  1  0.99740163  0.00000000  0.66653295  1
  Se  Se26  1  0.24399279  0.24102172  0.88890015  1
  Se  Se27  1  0.75600721  0.25897828  0.38890015  1
  Se  Se28  1  0.75600721  0.74102172  0.38890015  1
  Se  Se29  1  0.24399279  0.75897828  0.88890015  1
