# generated using pymatgen
data_TaNbC2
_symmetry_space_group_name_H-M   'P 1'
_cell_length_a   5.50328963
_cell_length_b   5.50328963
_cell_length_c   5.50328994
_cell_angle_alpha   33.49045442
_cell_angle_beta   33.49045442
_cell_angle_gamma   33.49045005
_symmetry_Int_Tables_number   1
_chemical_formula_structural   TaNbC2
_chemical_formula_sum   'Ta1 Nb1 C2'
_cell_volume   45.19835732
_cell_formula_units_Z   1
loop_
 _symmetry_equiv_pos_site_id
 _symmetry_equiv_pos_as_xyz
  1  'x, y, z'
loop_
 _atom_site_type_symbol
 _atom_site_label
 _atom_site_symmetry_multiplicity
 _atom_site_fract_x
 _atom_site_fract_y
 _atom_site_fract_z
 _atom_site_occupancy
  Ta  Ta0  1  -0.00000000  -0.00000000  0.00000000  1
  Nb  Nb1  1  0.50000000  0.50000000  0.50000000  1
  C  C2  1  0.25233862  0.25233862  0.25233862  1
  C  C3  1  0.74766138  0.74766138  0.74766138  1
