# generated using pymatgen
data_GdGeRu
_symmetry_space_group_name_H-M   'P 1'
_cell_length_a   4.45693009
_cell_length_b   7.13066064
_cell_length_c   7.15675994
_cell_angle_alpha   89.99860107
_cell_angle_beta   90.00000000
_cell_angle_gamma   90.00000000
_symmetry_Int_Tables_number   1
_chemical_formula_structural   GdGeRu
_chemical_formula_sum   'Gd4 Ge4 Ru4'
_cell_volume   227.44795682
_cell_formula_units_Z   4
loop_
 _symmetry_equiv_pos_site_id
 _symmetry_equiv_pos_as_xyz
  1  'x, y, z'
loop_
 _atom_site_type_symbol
 _atom_site_label
 _atom_site_symmetry_multiplicity
 _atom_site_fract_x
 _atom_site_fract_y
 _atom_site_fract_z
 _atom_site_occupancy
  Gd  Gd0  1  0.25000000  0.52027298  0.31093614  1
  Gd  Gd1  1  0.75000000  0.47972702  0.68906386  1
  Gd  Gd2  1  0.25000000  0.02024344  0.18912515  1
  Gd  Gd3  1  0.75000000  0.97975656  0.81087485  1
  Ge  Ge4  1  0.25000000  0.69782415  0.89266423  1
  Ge  Ge5  1  0.75000000  0.30217585  0.10733577  1
  Ge  Ge6  1  0.25000000  0.19780488  0.60727996  1
  Ge  Ge7  1  0.75000000  0.80219512  0.39272004  1
  Ru  Ru8  1  0.75000000  0.15123926  0.43542075  1
  Ru  Ru9  1  0.25000000  0.84876074  0.56457925  1
  Ru  Ru10  1  0.75000000  0.65124146  0.06461475  1
  Ru  Ru11  1  0.25000000  0.34875854  0.93538525  1
