# generated using pymatgen
data_KEuPSe4
_symmetry_space_group_name_H-M   'P 1'
_cell_length_a   6.96577094
_cell_length_b   6.90980454
_cell_length_c   9.09231639
_cell_angle_alpha   72.60088732
_cell_angle_beta   90.00000000
_cell_angle_gamma   90.00000000
_symmetry_Int_Tables_number   1
_chemical_formula_structural   KEuPSe4
_chemical_formula_sum   'K2 Eu2 P2 Se8'
_cell_volume   417.60853479
_cell_formula_units_Z   2
loop_
 _symmetry_equiv_pos_site_id
 _symmetry_equiv_pos_as_xyz
  1  'x, y, z'
loop_
 _atom_site_type_symbol
 _atom_site_label
 _atom_site_symmetry_multiplicity
 _atom_site_fract_x
 _atom_site_fract_y
 _atom_site_fract_z
 _atom_site_occupancy
  K  K0  1  0.25000000  0.75724498  0.93692788  1
  K  K1  1  0.75000000  0.24275502  0.06307212  1
  Eu  Eu2  1  0.25000000  0.73193285  0.45059267  1
  Eu  Eu3  1  0.75000000  0.26806715  0.54940733  1
  P  P4  1  0.25000000  0.29511058  0.31028978  1
  P  P5  1  0.75000000  0.70488942  0.68971022  1
  Se  Se6  1  0.25000000  0.10026541  0.15826859  1
  Se  Se7  1  0.75000000  0.88049176  0.44269377  1
  Se  Se8  1  0.99864883  0.50031082  0.26540302  1
  Se  Se9  1  0.49864883  0.49968918  0.73459698  1
  Se  Se10  1  0.00135117  0.49968918  0.73459698  1
  Se  Se11  1  0.50135117  0.50031082  0.26540302  1
  Se  Se12  1  0.25000000  0.11950824  0.55730623  1
  Se  Se13  1  0.75000000  0.89973459  0.84173141  1
