# generated using pymatgen
data_NdAlAu
_symmetry_space_group_name_H-M   'P 1'
_cell_length_a   4.56337847
_cell_length_b   7.48861268
_cell_length_c   7.78163837
_cell_angle_alpha   89.99989138
_cell_angle_beta   90.00000000
_cell_angle_gamma   90.00000000
_symmetry_Int_Tables_number   1
_chemical_formula_structural   NdAlAu
_chemical_formula_sum   'Nd4 Al4 Au4'
_cell_volume   265.92483737
_cell_formula_units_Z   4
loop_
 _symmetry_equiv_pos_site_id
 _symmetry_equiv_pos_as_xyz
  1  'x, y, z'
loop_
 _atom_site_type_symbol
 _atom_site_label
 _atom_site_symmetry_multiplicity
 _atom_site_fract_x
 _atom_site_fract_y
 _atom_site_fract_z
 _atom_site_occupancy
  Nd  Nd0  1  0.25000000  0.00991721  0.30532464  1
  Nd  Nd1  1  0.25000000  0.50991721  0.19467636  1
  Nd  Nd2  1  0.75000000  0.99009746  0.69469672  1
  Nd  Nd3  1  0.75000000  0.49009746  0.80530228  1
  Al  Al4  1  0.25000000  0.17182101  0.92023783  1
  Al  Al5  1  0.25000000  0.67182101  0.57976217  1
  Al  Al6  1  0.75000000  0.82817548  0.07974256  1
  Al  Al7  1  0.75000000  0.32817448  0.42025744  1
  Au  Au8  1  0.25000000  0.29740027  0.59303228  1
  Au  Au9  1  0.25000000  0.79740227  0.90696772  1
  Au  Au10  1  0.75000000  0.70258957  0.40707637  1
  Au  Au11  1  0.75000000  0.20258657  0.09292363  1
