# generated using pymatgen
data_Mn3(HO3)2
_symmetry_space_group_name_H-M   'P 1'
_cell_length_a   7.51379114
_cell_length_b   7.51379114
_cell_length_c   4.58086378
_cell_angle_alpha   89.65628104
_cell_angle_beta   89.65628104
_cell_angle_gamma   22.15364698
_symmetry_Int_Tables_number   1
_chemical_formula_structural   Mn3(HO3)2
_chemical_formula_sum   'Mn3 H2 O6'
_cell_volume   97.52240100
_cell_formula_units_Z   1
loop_
 _symmetry_equiv_pos_site_id
 _symmetry_equiv_pos_as_xyz
  1  'x, y, z'
loop_
 _atom_site_type_symbol
 _atom_site_label
 _atom_site_symmetry_multiplicity
 _atom_site_fract_x
 _atom_site_fract_y
 _atom_site_fract_z
 _atom_site_occupancy
  Mn  Mn0  1  -0.00000000  -0.00000000  0.50000000  1
  Mn  Mn1  1  0.64492270  0.64492270  0.02755934  1
  Mn  Mn2  1  0.35507730  0.35507730  0.97244066  1
  H  H3  1  0.81858374  0.81858374  0.40458831  1
  H  H4  1  0.18141626  0.18141626  0.59541169  1
  O  O5  1  0.45514176  0.45514176  0.27479660  1
  O  O6  1  0.54485824  0.54485824  0.72520340  1
  O  O7  1  0.88588643  0.88588643  0.71983353  1
  O  O8  1  0.11411357  0.11411357  0.28016647  1
  O  O9  1  0.79537139  0.79537139  0.20155301  1
  O  O10  1  0.20462861  0.20462861  0.79844699  1
