# generated using pymatgen
data_Y2InPd2
_symmetry_space_group_name_H-M   'P 1'
_cell_length_a   7.75513305
_cell_length_b   7.75513305
_cell_length_c   3.66279156
_cell_angle_alpha   90.00000000
_cell_angle_beta   90.00000000
_cell_angle_gamma   90.00000000
_symmetry_Int_Tables_number   1
_chemical_formula_structural   Y2InPd2
_chemical_formula_sum   'Y4 In2 Pd4'
_cell_volume   220.28793461
_cell_formula_units_Z   2
loop_
 _symmetry_equiv_pos_site_id
 _symmetry_equiv_pos_as_xyz
  1  'x, y, z'
loop_
 _atom_site_type_symbol
 _atom_site_label
 _atom_site_symmetry_multiplicity
 _atom_site_fract_x
 _atom_site_fract_y
 _atom_site_fract_z
 _atom_site_occupancy
  Y  Y0  1  0.67356264  0.17356264  0.50000000  1
  Y  Y1  1  0.32643736  0.82643736  0.50000000  1
  Y  Y2  1  0.17356264  0.32643736  0.50000000  1
  Y  Y3  1  0.82643736  0.67356264  0.50000000  1
  In  In4  1  0.50000000  0.50000000  0.00000000  1
  In  In5  1  0.00000000  0.00000000  0.00000000  1
  Pd  Pd6  1  0.12748657  0.62748657  0.00000000  1
  Pd  Pd7  1  0.87251343  0.37251343  -0.00000000  1
  Pd  Pd8  1  0.62748657  0.87251343  0.00000000  1
  Pd  Pd9  1  0.37251343  0.12748657  -0.00000000  1
