# generated using pymatgen
data_PrAs
_symmetry_space_group_name_H-M   'P 1'
_cell_length_a   4.31075169
_cell_length_b   4.31075151
_cell_length_c   4.31075256
_cell_angle_alpha   60.00000008
_cell_angle_beta   60.00000142
_cell_angle_gamma   59.99999496
_symmetry_Int_Tables_number   1
_chemical_formula_structural   PrAs
_chemical_formula_sum   'Pr1 As1'
_cell_volume   56.64271752
_cell_formula_units_Z   1
loop_
 _symmetry_equiv_pos_site_id
 _symmetry_equiv_pos_as_xyz
  1  'x, y, z'
loop_
 _atom_site_type_symbol
 _atom_site_label
 _atom_site_symmetry_multiplicity
 _atom_site_fract_x
 _atom_site_fract_y
 _atom_site_fract_z
 _atom_site_occupancy
  Pr  Pr0  1  0.50000000  0.50000000  0.50000000  1
  As  As1  1  0.00000000  -0.00000000  -0.00000000  1
