# generated using pymatgen
data_AlI3N5
_symmetry_space_group_name_H-M   'P 1'
_cell_length_a   7.54444430
_cell_length_b   7.54444430
_cell_length_c   7.84713676
_cell_angle_alpha   90.00000000
_cell_angle_beta   90.00000000
_cell_angle_gamma   125.33569956
_symmetry_Int_Tables_number   1
_chemical_formula_structural   AlI3N5
_chemical_formula_sum   'Al2 I6 N10'
_cell_volume   364.36562308
_cell_formula_units_Z   2
loop_
 _symmetry_equiv_pos_site_id
 _symmetry_equiv_pos_as_xyz
  1  'x, y, z'
loop_
 _atom_site_type_symbol
 _atom_site_label
 _atom_site_symmetry_multiplicity
 _atom_site_fract_x
 _atom_site_fract_y
 _atom_site_fract_z
 _atom_site_occupancy
  Al  Al0  1  0.17047036  0.82952964  0.25000000  1
  Al  Al1  1  0.82952964  0.17047036  0.75000000  1
  I  I2  1  0.73478261  0.26521739  0.25000000  1
  I  I3  1  0.26521739  0.73478261  0.75000000  1
  I  I4  1  0.77063160  0.77063160  -0.00000000  1
  I  I5  1  0.77063160  0.77063160  0.50000000  1
  I  I6  1  0.22936840  0.22936840  -0.00000000  1
  I  I7  1  0.22936840  0.22936840  0.50000000  1
  N  N8  1  0.31291657  0.68708343  0.25000000  1
  N  N9  1  0.68708343  0.31291657  0.75000000  1
  N  N10  1  0.09026854  0.90973146  0.44588615  1
  N  N11  1  0.90973146  0.09026854  0.55411385  1
  N  N12  1  0.09026854  0.90973146  0.05411385  1
  N  N13  1  0.90973146  0.09026854  0.94588615  1
  N  N14  1  0.42897451  0.14181013  0.25000000  1
  N  N15  1  0.14181013  0.42897451  0.75000000  1
  N  N16  1  0.57102549  0.85818987  0.75000000  1
  N  N17  1  0.85818987  0.57102549  0.25000000  1
