# generated using pymatgen
data_HoAlPt
_symmetry_space_group_name_H-M   'P 1'
_cell_length_a   4.38386548
_cell_length_b   6.85664692
_cell_length_c   7.70093394
_cell_angle_alpha   90.00000000
_cell_angle_beta   90.00000000
_cell_angle_gamma   90.00000000
_symmetry_Int_Tables_number   1
_chemical_formula_structural   HoAlPt
_chemical_formula_sum   'Ho4 Al4 Pt4'
_cell_volume   231.47942955
_cell_formula_units_Z   4
loop_
 _symmetry_equiv_pos_site_id
 _symmetry_equiv_pos_as_xyz
  1  'x, y, z'
loop_
 _atom_site_type_symbol
 _atom_site_label
 _atom_site_symmetry_multiplicity
 _atom_site_fract_x
 _atom_site_fract_y
 _atom_site_fract_z
 _atom_site_occupancy
  Ho  Ho0  1  0.75000000  0.47117153  0.81889340  1
  Ho  Ho1  1  0.75000000  0.97117153  0.68110660  1
  Ho  Ho2  1  0.25000000  0.52882847  0.18110660  1
  Ho  Ho3  1  0.25000000  0.02882847  0.31889340  1
  Al  Al4  1  0.75000000  0.35647796  0.43634994  1
  Al  Al5  1  0.75000000  0.85647796  0.06365006  1
  Al  Al6  1  0.25000000  0.64352204  0.56365006  1
  Al  Al7  1  0.25000000  0.14352204  0.93634994  1
  Pt  Pt8  1  0.75000000  0.22822328  0.11740241  1
  Pt  Pt9  1  0.75000000  0.72822328  0.38259759  1
  Pt  Pt10  1  0.25000000  0.77177672  0.88259759  1
  Pt  Pt11  1  0.25000000  0.27177672  0.61740241  1
