# generated using pymatgen
data_Mg2Mo3O8
_symmetry_space_group_name_H-M   'P 1'
_cell_length_a   5.75499375
_cell_length_b   5.75499375
_cell_length_c   10.34168717
_cell_angle_alpha   90.00000000
_cell_angle_beta   90.00000000
_cell_angle_gamma   119.99999442
_symmetry_Int_Tables_number   1
_chemical_formula_structural   Mg2Mo3O8
_chemical_formula_sum   'Mg4 Mo6 O16'
_cell_volume   296.62774207
_cell_formula_units_Z   2
loop_
 _symmetry_equiv_pos_site_id
 _symmetry_equiv_pos_as_xyz
  1  'x, y, z'
loop_
 _atom_site_type_symbol
 _atom_site_label
 _atom_site_symmetry_multiplicity
 _atom_site_fract_x
 _atom_site_fract_y
 _atom_site_fract_z
 _atom_site_occupancy
  Mg  Mg0  1  0.66666700  0.33333300  0.57692489  1
  Mg  Mg1  1  0.33333300  0.66666700  0.07692489  1
  Mg  Mg2  1  0.66666700  0.33333300  0.97216526  1
  Mg  Mg3  1  0.33333300  0.66666700  0.47216526  1
  Mo  Mo4  1  0.36496400  0.18248200  0.25706650  1
  Mo  Mo5  1  0.81751800  0.63503600  0.25706650  1
  Mo  Mo6  1  0.81751800  0.18248200  0.25706650  1
  Mo  Mo7  1  0.63503600  0.81751800  0.75706650  1
  Mo  Mo8  1  0.18248200  0.36496400  0.75706650  1
  Mo  Mo9  1  0.18248200  0.81751800  0.75706650  1
  O  O10  1  -0.00000000  -0.00000000  0.16042107  1
  O  O11  1  -0.00000000  -0.00000000  0.66042107  1
  O  O12  1  0.66666700  0.33333300  0.39441598  1
  O  O13  1  0.33333300  0.66666700  0.89441598  1
  O  O14  1  0.96710611  0.48355255  0.12621505  1
  O  O15  1  0.51644745  0.03289389  0.12621505  1
  O  O16  1  0.51644745  0.48355255  0.12621505  1
  O  O17  1  0.03289389  0.51644745  0.62621505  1
  O  O18  1  0.48355255  0.96710611  0.62621505  1
  O  O19  1  0.48355255  0.51644745  0.62621505  1
  O  O20  1  0.33782630  0.16891315  0.85002738  1
  O  O21  1  0.83108685  0.66217370  0.85002738  1
  O  O22  1  0.83108685  0.16891315  0.85002738  1
  O  O23  1  0.66217370  0.83108685  0.35002738  1
  O  O24  1  0.16891315  0.33782630  0.35002738  1
  O  O25  1  0.16891315  0.83108685  0.35002738  1
