# generated using pymatgen
data_Y(BIr)2
_symmetry_space_group_name_H-M   'P 1'
_cell_length_a   5.47479172
_cell_length_b   5.47479231
_cell_length_c   6.17394269
_cell_angle_alpha   104.10616503
_cell_angle_beta   104.10615467
_cell_angle_gamma   116.76382807
_symmetry_Int_Tables_number   1
_chemical_formula_structural   Y(BIr)2
_chemical_formula_sum   'Y2 B4 Ir4'
_cell_volume   146.28877220
_cell_formula_units_Z   2
loop_
 _symmetry_equiv_pos_site_id
 _symmetry_equiv_pos_as_xyz
  1  'x, y, z'
loop_
 _atom_site_type_symbol
 _atom_site_label
 _atom_site_symmetry_multiplicity
 _atom_site_fract_x
 _atom_site_fract_y
 _atom_site_fract_z
 _atom_site_occupancy
  Y  Y0  1  0.12500000  0.87500000  0.75000000  1
  Y  Y1  1  0.87500000  0.12500000  0.25000000  1
  B  B2  1  0.80467517  0.19532483  0.75000000  1
  B  B3  1  0.55467517  0.44532483  0.25000000  1
  B  B4  1  0.44532483  0.55467517  0.75000000  1
  B  B5  1  0.19532483  0.80467517  0.25000000  1
  Ir  Ir6  1  0.75193192  0.50193192  0.00386384  1
  Ir  Ir7  1  0.50193192  0.75193192  0.50386384  1
  Ir  Ir8  1  0.24806808  0.49806808  0.99613616  1
  Ir  Ir9  1  0.49806808  0.24806808  0.49613616  1
