# generated using pymatgen
data_CeThSi4
_symmetry_space_group_name_H-M   'P 1'
_cell_length_a   7.69582393
_cell_length_b   7.69582393
_cell_length_c   7.69582393
_cell_angle_alpha   148.93543769
_cell_angle_beta   148.93543769
_cell_angle_gamma   44.50634724
_symmetry_Int_Tables_number   1
_chemical_formula_structural   CeThSi4
_chemical_formula_sum   'Ce1 Th1 Si4'
_cell_volume   120.99607789
_cell_formula_units_Z   1
loop_
 _symmetry_equiv_pos_site_id
 _symmetry_equiv_pos_as_xyz
  1  'x, y, z'
loop_
 _atom_site_type_symbol
 _atom_site_label
 _atom_site_symmetry_multiplicity
 _atom_site_fract_x
 _atom_site_fract_y
 _atom_site_fract_z
 _atom_site_occupancy
  Ce  Ce0  1  0.25000000  0.75000000  0.50000000  1
  Th  Th1  1  0.00000000  0.00000000  0.00000000  1
  Si  Si2  1  0.66740749  0.16740749  0.50000000  1
  Si  Si3  1  0.58423633  0.58423633  0.00000000  1
  Si  Si4  1  0.83259251  0.33259251  0.50000000  1
  Si  Si5  1  0.41576367  0.41576367  -0.00000000  1
