# generated using pymatgen
data_Zr2Si4Ni3
_symmetry_space_group_name_H-M   'P 1'
_cell_length_a   7.31933095
_cell_length_b   7.31933095
_cell_length_c   6.86361653
_cell_angle_alpha   90.00000000
_cell_angle_beta   90.00000000
_cell_angle_gamma   138.57706560
_symmetry_Int_Tables_number   1
_chemical_formula_structural   Zr2Si4Ni3
_chemical_formula_sum   'Zr4 Si8 Ni6'
_cell_volume   243.27596227
_cell_formula_units_Z   2
loop_
 _symmetry_equiv_pos_site_id
 _symmetry_equiv_pos_as_xyz
  1  'x, y, z'
loop_
 _atom_site_type_symbol
 _atom_site_label
 _atom_site_symmetry_multiplicity
 _atom_site_fract_x
 _atom_site_fract_y
 _atom_site_fract_z
 _atom_site_occupancy
  Zr  Zr0  1  0.10466884  0.89533116  0.59791199  1
  Zr  Zr1  1  0.89533116  0.10466884  0.40208801  1
  Zr  Zr2  1  0.39533116  0.60466884  0.09791199  1
  Zr  Zr3  1  0.60466884  0.39533116  0.90208801  1
  Si  Si4  1  0.81164553  0.68835447  0.25000000  1
  Si  Si5  1  0.68835447  0.81164553  0.75000000  1
  Si  Si6  1  0.18835447  0.31164553  0.75000000  1
  Si  Si7  1  0.31164553  0.18835447  0.25000000  1
  Si  Si8  1  0.18255682  0.81744318  0.97813679  1
  Si  Si9  1  0.81744318  0.18255682  0.02186321  1
  Si  Si10  1  0.31744318  0.68255682  0.47813679  1
  Si  Si11  1  0.68255682  0.31744318  0.52186321  1
  Ni  Ni12  1  -0.00000000  0.00000000  0.00000000  1
  Ni  Ni13  1  0.50000000  0.50000000  0.50000000  1
  Ni  Ni14  1  0.97757403  0.52242597  0.25000000  1
  Ni  Ni15  1  0.52242597  0.97757403  0.75000000  1
  Ni  Ni16  1  0.02242597  0.47757403  0.75000000  1
  Ni  Ni17  1  0.47757403  0.02242597  0.25000000  1
