# generated using pymatgen
data_YAsSe
_symmetry_space_group_name_H-M   'P 1'
_cell_length_a   3.89975561
_cell_length_b   3.94396579
_cell_length_c   17.53562074
_cell_angle_alpha   90.00000000
_cell_angle_beta   90.00000000
_cell_angle_gamma   90.00000000
_symmetry_Int_Tables_number   1
_chemical_formula_structural   YAsSe
_chemical_formula_sum   'Y4 As4 Se4'
_cell_volume   269.70666240
_cell_formula_units_Z   4
loop_
 _symmetry_equiv_pos_site_id
 _symmetry_equiv_pos_as_xyz
  1  'x, y, z'
loop_
 _atom_site_type_symbol
 _atom_site_label
 _atom_site_symmetry_multiplicity
 _atom_site_fract_x
 _atom_site_fract_y
 _atom_site_fract_z
 _atom_site_occupancy
  Y  Y0  1  0.75000000  0.23927696  0.86007492  1
  Y  Y1  1  0.75000000  0.26072304  0.36007492  1
  Y  Y2  1  0.25000000  0.76072304  0.13992508  1
  Y  Y3  1  0.25000000  0.73927696  0.63992508  1
  As  As4  1  0.25000000  0.20920245  0.50172915  1
  As  As5  1  0.25000000  0.29079755  0.00172915  1
  As  As6  1  0.75000000  0.79079755  0.49827085  1
  As  As7  1  0.75000000  0.70920245  0.99827085  1
  Se  Se8  1  0.75000000  0.24204038  0.68726569  1
  Se  Se9  1  0.75000000  0.25795962  0.18726569  1
  Se  Se10  1  0.25000000  0.75795962  0.31273431  1
  Se  Se11  1  0.25000000  0.74204038  0.81273431  1
