# generated using pymatgen
data_SrCdAu
_symmetry_space_group_name_H-M   'P 1'
_cell_length_a   4.52546495
_cell_length_b   7.73932118
_cell_length_c   8.97865043
_cell_angle_alpha   90.00000000
_cell_angle_beta   90.00000000
_cell_angle_gamma   90.00000000
_symmetry_Int_Tables_number   1
_chemical_formula_structural   SrCdAu
_chemical_formula_sum   'Sr4 Cd4 Au4'
_cell_volume   314.46849272
_cell_formula_units_Z   4
loop_
 _symmetry_equiv_pos_site_id
 _symmetry_equiv_pos_as_xyz
  1  'x, y, z'
loop_
 _atom_site_type_symbol
 _atom_site_label
 _atom_site_symmetry_multiplicity
 _atom_site_fract_x
 _atom_site_fract_y
 _atom_site_fract_z
 _atom_site_occupancy
  Sr  Sr0  1  0.25000000  0.03562979  0.31569809  1
  Sr  Sr1  1  0.25000000  0.53562979  0.18430191  1
  Sr  Sr2  1  0.75000000  0.96437021  0.68430191  1
  Sr  Sr3  1  0.75000000  0.46437021  0.81569809  1
  Cd  Cd4  1  0.25000000  0.14555682  0.93700789  1
  Cd  Cd5  1  0.25000000  0.64555682  0.56299211  1
  Cd  Cd6  1  0.75000000  0.85444318  0.06299211  1
  Cd  Cd7  1  0.75000000  0.35444318  0.43700789  1
  Au  Au8  1  0.25000000  0.26358638  0.62333391  1
  Au  Au9  1  0.25000000  0.76358638  0.87666609  1
  Au  Au10  1  0.75000000  0.73641362  0.37666609  1
  Au  Au11  1  0.75000000  0.23641362  0.12333391  1
