# generated using pymatgen
data_YbH3CN3
_symmetry_space_group_name_H-M   'P 1'
_cell_length_a   5.22063020
_cell_length_b   5.22063020
_cell_length_c   6.67265232
_cell_angle_alpha   90.00000000
_cell_angle_beta   90.00000000
_cell_angle_gamma   120.00000647
_symmetry_Int_Tables_number   1
_chemical_formula_structural   YbH3CN3
_chemical_formula_sum   'Yb2 H6 C2 N6'
_cell_volume   157.49797097
_cell_formula_units_Z   2
loop_
 _symmetry_equiv_pos_site_id
 _symmetry_equiv_pos_as_xyz
  1  'x, y, z'
loop_
 _atom_site_type_symbol
 _atom_site_label
 _atom_site_symmetry_multiplicity
 _atom_site_fract_x
 _atom_site_fract_y
 _atom_site_fract_z
 _atom_site_occupancy
  Yb  Yb0  1  0.00000000  0.00000000  0.50000000  1
  Yb  Yb1  1  0.00000000  0.00000000  0.00000000  1
  H  H2  1  0.07488383  0.63918398  0.75000000  1
  H  H3  1  0.36081602  0.43570086  0.75000000  1
  H  H4  1  0.56429914  0.92511617  0.75000000  1
  H  H5  1  0.92511617  0.36081602  0.25000000  1
  H  H6  1  0.63918398  0.56429914  0.25000000  1
  H  H7  1  0.43570086  0.07488383  0.25000000  1
  C  C8  1  0.66666700  0.33333300  0.75000000  1
  C  C9  1  0.33333300  0.66666700  0.25000000  1
  N  N10  1  0.87008461  0.62635866  0.75000000  1
  N  N11  1  0.37364134  0.24372695  0.75000000  1
  N  N12  1  0.75627305  0.12991539  0.75000000  1
  N  N13  1  0.12991539  0.37364134  0.25000000  1
  N  N14  1  0.62635866  0.75627305  0.25000000  1
  N  N15  1  0.24372695  0.87008461  0.25000000  1
