# generated using pymatgen
data_Zr2Al3Co
_symmetry_space_group_name_H-M   'P 1'
_cell_length_a   5.17668584
_cell_length_b   5.17668584
_cell_length_c   5.17668686
_cell_angle_alpha   60.94536370
_cell_angle_beta   60.94536370
_cell_angle_gamma   60.94535179
_symmetry_Int_Tables_number   1
_chemical_formula_structural   Zr2Al3Co
_chemical_formula_sum   'Zr2 Al3 Co1'
_cell_volume   100.18315076
_cell_formula_units_Z   1
loop_
 _symmetry_equiv_pos_site_id
 _symmetry_equiv_pos_as_xyz
  1  'x, y, z'
loop_
 _atom_site_type_symbol
 _atom_site_label
 _atom_site_symmetry_multiplicity
 _atom_site_fract_x
 _atom_site_fract_y
 _atom_site_fract_z
 _atom_site_occupancy
  Zr  Zr0  1  0.62689747  0.62689747  0.62689747  1
  Zr  Zr1  1  0.37310253  0.37310253  0.37310253  1
  Al  Al2  1  -0.00000000  0.50000000  0.00000000  1
  Al  Al3  1  0.50000000  -0.00000000  0.00000000  1
  Al  Al4  1  -0.00000000  -0.00000000  0.50000000  1
  Co  Co5  1  -0.00000000  -0.00000000  0.00000000  1
