# generated using pymatgen
data_Pr2Zn5Sn
_symmetry_space_group_name_H-M   'P 1'
_cell_length_a   8.58678100
_cell_length_b   8.58678100
_cell_length_c   9.05296460
_cell_angle_alpha   90.00000000
_cell_angle_beta   90.00000000
_cell_angle_gamma   149.86612015
_symmetry_Int_Tables_number   1
_chemical_formula_structural   Pr2Zn5Sn
_chemical_formula_sum   'Pr4 Zn10 Sn2'
_cell_volume   335.10008741
_cell_formula_units_Z   2
loop_
 _symmetry_equiv_pos_site_id
 _symmetry_equiv_pos_as_xyz
  1  'x, y, z'
loop_
 _atom_site_type_symbol
 _atom_site_label
 _atom_site_symmetry_multiplicity
 _atom_site_fract_x
 _atom_site_fract_y
 _atom_site_fract_z
 _atom_site_occupancy
  Pr  Pr0  1  0.20590196  0.79409804  0.25000000  1
  Pr  Pr1  1  0.79409804  0.20590196  0.75000000  1
  Pr  Pr2  1  -0.00000000  0.00000000  0.50000000  1
  Pr  Pr3  1  -0.00000000  0.00000000  0.00000000  1
  Zn  Zn4  1  0.81452812  0.18547188  0.39085910  1
  Zn  Zn5  1  0.18547188  0.81452812  0.60914090  1
  Zn  Zn6  1  0.81452812  0.18547188  0.10914090  1
  Zn  Zn7  1  0.18547188  0.81452812  0.89085910  1
  Zn  Zn8  1  0.65654851  0.34345149  0.48494321  1
  Zn  Zn9  1  0.34345149  0.65654851  0.51505679  1
  Zn  Zn10  1  0.65654851  0.34345149  0.01505679  1
  Zn  Zn11  1  0.34345149  0.65654851  0.98494321  1
  Zn  Zn12  1  0.39488181  0.60511819  0.25000000  1
  Zn  Zn13  1  0.60511819  0.39488181  0.75000000  1
  Sn  Sn14  1  0.55526927  0.44473073  0.25000000  1
  Sn  Sn15  1  0.44473073  0.55526927  0.75000000  1
