# generated using pymatgen
data_Pr2Ga5Cu3
_symmetry_space_group_name_H-M   'P 1'
_cell_length_a   4.21796846
_cell_length_b   4.21796846
_cell_length_c   10.26370542
_cell_angle_alpha   90.00000000
_cell_angle_beta   90.00000000
_cell_angle_gamma   90.00000000
_symmetry_Int_Tables_number   1
_chemical_formula_structural   Pr2Ga5Cu3
_chemical_formula_sum   'Pr2 Ga5 Cu3'
_cell_volume   182.60423044
_cell_formula_units_Z   1
loop_
 _symmetry_equiv_pos_site_id
 _symmetry_equiv_pos_as_xyz
  1  'x, y, z'
loop_
 _atom_site_type_symbol
 _atom_site_label
 _atom_site_symmetry_multiplicity
 _atom_site_fract_x
 _atom_site_fract_y
 _atom_site_fract_z
 _atom_site_occupancy
  Pr  Pr0  1  0.50000000  0.00000000  0.74359430  1
  Pr  Pr1  1  -0.00000000  0.50000000  0.25640570  1
  Ga  Ga2  1  -0.00000000  0.50000000  0.86419934  1
  Ga  Ga3  1  0.50000000  -0.00000000  0.38106386  1
  Ga  Ga4  1  0.50000000  0.00000000  0.13580066  1
  Ga  Ga5  1  0.00000000  0.50000000  0.61893614  1
  Ga  Ga6  1  0.50000000  0.50000000  -0.00000000  1
  Cu  Cu7  1  0.00000000  0.00000000  0.50000000  1
  Cu  Cu8  1  0.00000000  0.00000000  -0.00000000  1
  Cu  Cu9  1  0.50000000  0.50000000  0.50000000  1
