# generated using pymatgen
data_Ba2Eu3Si7
_symmetry_space_group_name_H-M   'P 1'
_cell_length_a   9.28499815
_cell_length_b   9.28505001
_cell_length_c   4.10701268
_cell_angle_alpha   90.00000000
_cell_angle_beta   90.00000000
_cell_angle_gamma   120.00019517
_symmetry_Int_Tables_number   1
_chemical_formula_structural   Ba2Eu3Si7
_chemical_formula_sum   'Ba2 Eu3 Si7'
_cell_volume   306.63511678
_cell_formula_units_Z   1
loop_
 _symmetry_equiv_pos_site_id
 _symmetry_equiv_pos_as_xyz
  1  'x, y, z'
loop_
 _atom_site_type_symbol
 _atom_site_label
 _atom_site_symmetry_multiplicity
 _atom_site_fract_x
 _atom_site_fract_y
 _atom_site_fract_z
 _atom_site_occupancy
  Ba  Ba0  1  0.33331208  0.66667540  -0.00000000  1
  Ba  Ba1  1  0.66668792  0.33336232  -0.00000000  1
  Eu  Eu2  1  0.00000000  0.74617075  0.50000000  1
  Eu  Eu3  1  0.25380770  0.25380655  0.50000000  1
  Eu  Eu4  1  0.74619230  -0.00000115  0.50000000  1
  Si  Si5  1  -0.00000000  0.99998342  0.00000000  1
  Si  Si6  1  -0.00000000  0.25684006  -0.00000000  1
  Si  Si7  1  0.74315635  0.74314112  -0.00000000  1
  Si  Si8  1  0.25684365  0.99998477  -0.00000000  1
  Si  Si9  1  0.00000000  0.39828362  0.50000000  1
  Si  Si10  1  0.60172883  0.60174199  0.50000000  1
  Si  Si11  1  0.39827117  0.00001316  0.50000000  1
