# generated using pymatgen
data_Ti2Co3Sn2
_symmetry_space_group_name_H-M   'P 1'
_cell_length_a   7.26635801
_cell_length_b   7.26635801
_cell_length_c   7.26635751
_cell_angle_alpha   33.87137628
_cell_angle_beta   33.87137628
_cell_angle_gamma   33.87136941
_symmetry_Int_Tables_number   1
_chemical_formula_structural   Ti2Co3Sn2
_chemical_formula_sum   'Ti2 Co3 Sn2'
_cell_volume   106.20474592
_cell_formula_units_Z   1
loop_
 _symmetry_equiv_pos_site_id
 _symmetry_equiv_pos_as_xyz
  1  'x, y, z'
loop_
 _atom_site_type_symbol
 _atom_site_label
 _atom_site_symmetry_multiplicity
 _atom_site_fract_x
 _atom_site_fract_y
 _atom_site_fract_z
 _atom_site_occupancy
  Ti  Ti0  1  0.75382122  0.75382122  0.75382122  1
  Ti  Ti1  1  0.24746620  0.24746620  0.24746620  1
  Co  Co2  1  0.12144904  0.12144904  0.12144904  1
  Co  Co3  1  0.62741165  0.62741165  0.62741165  1
  Co  Co4  1  0.37647952  0.37647952  0.37647952  1
  Sn  Sn5  1  0.99472454  0.99472454  0.99472454  1
  Sn  Sn6  1  0.50364783  0.50364783  0.50364783  1
