# generated using pymatgen
data_Os(SeBr6)2
_symmetry_space_group_name_H-M   'P 1'
_cell_length_a   9.09500021
_cell_length_b   9.09275427
_cell_length_c   6.67879062
_cell_angle_alpha   72.92126129
_cell_angle_beta   72.92340492
_cell_angle_gamma   77.59977414
_symmetry_Int_Tables_number   1
_chemical_formula_structural   Os(SeBr6)2
_chemical_formula_sum   'Os1 Se2 Br12'
_cell_volume   499.67832943
_cell_formula_units_Z   1
loop_
 _symmetry_equiv_pos_site_id
 _symmetry_equiv_pos_as_xyz
  1  'x, y, z'
loop_
 _atom_site_type_symbol
 _atom_site_label
 _atom_site_symmetry_multiplicity
 _atom_site_fract_x
 _atom_site_fract_y
 _atom_site_fract_z
 _atom_site_occupancy
  Os  Os0  1  -0.00000000  -0.00000000  0.00000000  1
  Se  Se1  1  0.27868347  0.27869972  0.73198517  1
  Se  Se2  1  0.72131653  0.72130028  0.26801483  1
  Br  Br3  1  0.95079609  0.25696046  0.74671702  1
  Br  Br4  1  0.25694475  0.95080975  0.74673822  1
  Br  Br5  1  0.04920391  0.74303954  0.25328298  1
  Br  Br6  1  0.74305525  0.04919025  0.25326178  1
  Br  Br7  1  0.21284805  0.52939135  0.79919790  1
  Br  Br8  1  0.52935202  0.21281343  0.79924840  1
  Br  Br9  1  0.78715195  0.47060865  0.20080210  1
  Br  Br10  1  0.47064798  0.78718657  0.20075160  1
  Br  Br11  1  0.12541895  0.12541553  0.17849186  1
  Br  Br12  1  0.87458105  0.87458447  0.82150814  1
  Br  Br13  1  0.65017837  0.65015702  0.65250844  1
  Br  Br14  1  0.34982163  0.34984298  0.34749156  1
