# generated using pymatgen
data_UCrO4
_symmetry_space_group_name_H-M   'P 1'
_cell_length_a   4.86517794
_cell_length_b   5.08426968
_cell_length_c   11.81750150
_cell_angle_alpha   90.00000000
_cell_angle_beta   90.00000000
_cell_angle_gamma   90.00000000
_symmetry_Int_Tables_number   1
_chemical_formula_structural   UCrO4
_chemical_formula_sum   'U4 Cr4 O16'
_cell_volume   292.31625987
_cell_formula_units_Z   4
loop_
 _symmetry_equiv_pos_site_id
 _symmetry_equiv_pos_as_xyz
  1  'x, y, z'
loop_
 _atom_site_type_symbol
 _atom_site_label
 _atom_site_symmetry_multiplicity
 _atom_site_fract_x
 _atom_site_fract_y
 _atom_site_fract_z
 _atom_site_occupancy
  U  U0  1  0.50000000  0.75000000  0.33259321  1
  U  U1  1  0.50000000  0.25000000  0.66740679  1
  U  U2  1  0.00000000  0.75000000  0.83259321  1
  U  U3  1  0.00000000  0.25000000  0.16740679  1
  Cr  Cr4  1  0.00000000  0.75000000  0.56316767  1
  Cr  Cr5  1  0.50000000  0.75000000  0.06316767  1
  Cr  Cr6  1  0.50000000  0.25000000  0.93683233  1
  Cr  Cr7  1  0.00000000  0.25000000  0.43683233  1
  O  O8  1  0.72091589  0.09493645  0.81175846  1
  O  O9  1  0.22527333  0.42975710  0.55179570  1
  O  O10  1  0.77908411  0.09493645  0.31175846  1
  O  O11  1  0.77908411  0.59493645  0.68824154  1
  O  O12  1  0.27908411  0.40506355  0.81175846  1
  O  O13  1  0.72527333  0.07024290  0.05179570  1
  O  O14  1  0.72527333  0.57024290  0.94820430  1
  O  O15  1  0.27472667  0.92975710  0.94820430  1
  O  O16  1  0.27908411  0.90506355  0.18824154  1
  O  O17  1  0.27472667  0.42975710  0.05179570  1
  O  O18  1  0.77472667  0.07024290  0.55179570  1
  O  O19  1  0.22091589  0.40506355  0.31175846  1
  O  O20  1  0.22527333  0.92975710  0.44820430  1
  O  O21  1  0.22091589  0.90506355  0.68824154  1
  O  O22  1  0.72091589  0.59493645  0.18824154  1
  O  O23  1  0.77472667  0.57024290  0.44820430  1
