# generated using pymatgen
data_Sr2FeIrO6
_symmetry_space_group_name_H-M   'P 1'
_cell_length_a   5.55810762
_cell_length_b   5.55534551
_cell_length_c   5.56071646
_cell_angle_alpha   60.49637494
_cell_angle_beta   60.12904051
_cell_angle_gamma   60.28797830
_symmetry_Int_Tables_number   1
_chemical_formula_structural   Sr2FeIrO6
_chemical_formula_sum   'Sr2 Fe1 Ir1 O6'
_cell_volume   122.24376911
_cell_formula_units_Z   1
loop_
 _symmetry_equiv_pos_site_id
 _symmetry_equiv_pos_as_xyz
  1  'x, y, z'
loop_
 _atom_site_type_symbol
 _atom_site_label
 _atom_site_symmetry_multiplicity
 _atom_site_fract_x
 _atom_site_fract_y
 _atom_site_fract_z
 _atom_site_occupancy
  Sr  Sr0  1  0.75020220  0.75071923  0.74887756  1
  Sr  Sr1  1  0.24979780  0.24928077  0.25112244  1
  Fe  Fe2  1  0.50000000  0.50000000  0.50000000  1
  Ir  Ir3  1  -0.00000000  -0.00000000  0.00000000  1
  O  O4  1  0.77816624  0.23706039  0.72539804  1
  O  O5  1  0.22183376  0.76293961  0.27460196  1
  O  O6  1  0.24290747  0.70965903  0.79346349  1
  O  O7  1  0.75709253  0.29034097  0.20653651  1
  O  O8  1  0.71977541  0.78357621  0.26500808  1
  O  O9  1  0.28022459  0.21642379  0.73499192  1
