# generated using pymatgen
data_NaSbO6
_symmetry_space_group_name_H-M   'P 1'
_cell_length_a   8.55982544
_cell_length_b   8.55982544
_cell_length_c   6.77264994
_cell_angle_alpha   90.00000000
_cell_angle_beta   90.00000000
_cell_angle_gamma   90.00000000
_symmetry_Int_Tables_number   1
_chemical_formula_structural   NaSbO6
_chemical_formula_sum   'Na4 Sb4 O24'
_cell_volume   496.23620301
_cell_formula_units_Z   4
loop_
 _symmetry_equiv_pos_site_id
 _symmetry_equiv_pos_as_xyz
  1  'x, y, z'
loop_
 _atom_site_type_symbol
 _atom_site_label
 _atom_site_symmetry_multiplicity
 _atom_site_fract_x
 _atom_site_fract_y
 _atom_site_fract_z
 _atom_site_occupancy
  Na  Na0  1  0.25000000  0.75000000  0.25000000  1
  Na  Na1  1  0.75000000  0.25000000  0.25000000  1
  Na  Na2  1  0.25000000  0.25000000  0.75000000  1
  Na  Na3  1  0.75000000  0.75000000  0.75000000  1
  Sb  Sb4  1  0.25000000  0.75000000  0.75000000  1
  Sb  Sb5  1  0.75000000  0.25000000  0.75000000  1
  Sb  Sb6  1  0.25000000  0.25000000  0.25000000  1
  Sb  Sb7  1  0.75000000  0.75000000  0.25000000  1
  O  O8  1  0.24002038  0.50104432  0.90217341  1
  O  O9  1  0.75997962  0.49895568  0.90217341  1
  O  O10  1  0.74002038  0.00104432  0.59782659  1
  O  O11  1  0.25997962  0.99895568  0.59782659  1
  O  O12  1  0.49895568  0.24002038  0.09782659  1
  O  O13  1  0.50104432  0.75997962  0.09782659  1
  O  O14  1  0.99895568  0.74002038  0.40217341  1
  O  O15  1  0.00104432  0.25997962  0.40217341  1
  O  O16  1  0.49895568  0.75997962  0.90217341  1
  O  O17  1  0.50104432  0.24002038  0.90217341  1
  O  O18  1  0.99895568  0.25997962  0.59782659  1
  O  O19  1  0.00104432  0.74002038  0.59782659  1
  O  O20  1  0.24002038  0.49895568  0.09782659  1
  O  O21  1  0.75997962  0.50104432  0.09782659  1
  O  O22  1  0.74002038  0.99895568  0.40217341  1
  O  O23  1  0.25997962  0.00104432  0.40217341  1
  O  O24  1  0.33899323  0.66100677  0.53581646  1
  O  O25  1  0.66100677  0.33899323  0.53581646  1
  O  O26  1  0.83899323  0.16100677  0.96418354  1
  O  O27  1  0.16100677  0.83899323  0.96418354  1
  O  O28  1  0.33899323  0.33899323  0.46418354  1
  O  O29  1  0.66100677  0.66100677  0.46418354  1
  O  O30  1  0.83899323  0.83899323  0.03581646  1
  O  O31  1  0.16100677  0.16100677  0.03581646  1
