# generated using pymatgen
data_GaPt
_symmetry_space_group_name_H-M   'P 1'
_cell_length_a   4.92186618
_cell_length_b   4.92186618
_cell_length_c   4.92186618
_cell_angle_alpha   90.00000000
_cell_angle_beta   90.00000000
_cell_angle_gamma   90.00000000
_symmetry_Int_Tables_number   1
_chemical_formula_structural   GaPt
_chemical_formula_sum   'Ga4 Pt4'
_cell_volume   119.23105991
_cell_formula_units_Z   4
loop_
 _symmetry_equiv_pos_site_id
 _symmetry_equiv_pos_as_xyz
  1  'x, y, z'
loop_
 _atom_site_type_symbol
 _atom_site_label
 _atom_site_symmetry_multiplicity
 _atom_site_fract_x
 _atom_site_fract_y
 _atom_site_fract_z
 _atom_site_occupancy
  Ga  Ga0  1  0.09297790  0.09297790  0.09297790  1
  Ga  Ga1  1  0.40702210  0.90702210  0.59297790  1
  Ga  Ga2  1  0.90702210  0.59297790  0.40702210  1
  Ga  Ga3  1  0.59297790  0.40702210  0.90702210  1
  Pt  Pt4  1  0.39943358  0.39943358  0.39943358  1
  Pt  Pt5  1  0.10056642  0.60056642  0.89943358  1
  Pt  Pt6  1  0.60056642  0.89943358  0.10056642  1
  Pt  Pt7  1  0.89943358  0.10056642  0.60056642  1
