# generated using pymatgen
data_ErAgSn
_symmetry_space_group_name_H-M   'P 1'
_cell_length_a   7.31988885
_cell_length_b   7.31988783
_cell_length_c   4.45872097
_cell_angle_alpha   90.00000000
_cell_angle_beta   90.00000000
_cell_angle_gamma   119.99999986
_symmetry_Int_Tables_number   1
_chemical_formula_structural   ErAgSn
_chemical_formula_sum   'Er3 Ag3 Sn3'
_cell_volume   206.89492588
_cell_formula_units_Z   3
loop_
 _symmetry_equiv_pos_site_id
 _symmetry_equiv_pos_as_xyz
  1  'x, y, z'
loop_
 _atom_site_type_symbol
 _atom_site_label
 _atom_site_symmetry_multiplicity
 _atom_site_fract_x
 _atom_site_fract_y
 _atom_site_fract_z
 _atom_site_occupancy
  Er  Er0  1  0.00000000  0.57015500  0.00000000  1
  Er  Er1  1  0.42984500  0.42984500  -0.00000000  1
  Er  Er2  1  0.57015500  -0.00000000  -0.00000000  1
  Ag  Ag3  1  0.00000000  0.24582126  0.50000000  1
  Ag  Ag4  1  0.75417874  0.75417874  0.50000000  1
  Ag  Ag5  1  0.24582126  -0.00000000  0.50000000  1
  Sn  Sn6  1  0.00000000  -0.00000000  0.00000000  1
  Sn  Sn7  1  0.66666700  0.33333300  0.50000000  1
  Sn  Sn8  1  0.33333300  0.66666700  0.50000000  1
