# generated using pymatgen
data_Eu2SeS
_symmetry_space_group_name_H-M   'P 1'
_cell_length_a   7.36783934
_cell_length_b   7.36783934
_cell_length_c   7.36783915
_cell_angle_alpha   33.51820628
_cell_angle_beta   33.51820628
_cell_angle_gamma   33.51819331
_symmetry_Int_Tables_number   1
_chemical_formula_structural   Eu2SeS
_chemical_formula_sum   'Eu2 Se1 S1'
_cell_volume   108.62535066
_cell_formula_units_Z   1
loop_
 _symmetry_equiv_pos_site_id
 _symmetry_equiv_pos_as_xyz
  1  'x, y, z'
loop_
 _atom_site_type_symbol
 _atom_site_label
 _atom_site_symmetry_multiplicity
 _atom_site_fract_x
 _atom_site_fract_y
 _atom_site_fract_z
 _atom_site_occupancy
  Eu  Eu0  1  0.24670278  0.24670278  0.24670278  1
  Eu  Eu1  1  0.75329722  0.75329722  0.75329722  1
  Se  Se2  1  0.00000000  0.00000000  -0.00000000  1
  S  S3  1  0.50000000  0.50000000  0.50000000  1
