# generated using pymatgen
data_YbZnCuAs2
_symmetry_space_group_name_H-M   'P 1'
_cell_length_a   4.05698224
_cell_length_b   4.05698224
_cell_length_c   6.63705831
_cell_angle_alpha   90.00000000
_cell_angle_beta   90.00000000
_cell_angle_gamma   120.00001041
_symmetry_Int_Tables_number   1
_chemical_formula_structural   YbZnCuAs2
_chemical_formula_sum   'Yb1 Zn1 Cu1 As2'
_cell_volume   94.60463912
_cell_formula_units_Z   1
loop_
 _symmetry_equiv_pos_site_id
 _symmetry_equiv_pos_as_xyz
  1  'x, y, z'
loop_
 _atom_site_type_symbol
 _atom_site_label
 _atom_site_symmetry_multiplicity
 _atom_site_fract_x
 _atom_site_fract_y
 _atom_site_fract_z
 _atom_site_occupancy
  Yb  Yb0  1  0.33333300  0.66666700  0.98291847  1
  Zn  Zn1  1  0.00000000  0.00000000  0.37922343  1
  Cu  Cu2  1  0.66666700  0.33333300  0.63863970  1
  As  As3  1  0.66666700  0.33333300  0.24721290  1
  As  As4  1  0.00000000  0.00000000  0.75200652  1
