# generated using pymatgen
data_EuMoO4
_symmetry_space_group_name_H-M   'P 1'
_cell_length_a   6.95476469
_cell_length_b   6.95466929
_cell_length_c   6.95475586
_cell_angle_alpha   134.80660096
_cell_angle_beta   134.80817733
_cell_angle_gamma   65.82889187
_symmetry_Int_Tables_number   1
_chemical_formula_structural   EuMoO4
_chemical_formula_sum   'Eu2 Mo2 O8'
_cell_volume   166.76629632
_cell_formula_units_Z   2
loop_
 _symmetry_equiv_pos_site_id
 _symmetry_equiv_pos_as_xyz
  1  'x, y, z'
loop_
 _atom_site_type_symbol
 _atom_site_label
 _atom_site_symmetry_multiplicity
 _atom_site_fract_x
 _atom_site_fract_y
 _atom_site_fract_z
 _atom_site_occupancy
  Eu  Eu0  1  0.74999860  0.25000061  0.50000198  1
  Eu  Eu1  1  1.00000140  0.99999939  0.99999802  1
  Mo  Mo2  1  0.24999974  0.74997028  0.49998081  1
  Mo  Mo3  1  0.50000026  0.50002972  0.00001919  1
  O  O4  1  0.31483393  0.90661227  0.88741846  1
  O  O5  1  0.01920849  0.42742346  0.11260062  1
  O  O6  1  0.17744770  0.56482792  0.90821822  1
  O  O7  1  0.65660289  0.26922591  0.09178401  1
  O  O8  1  0.43516607  0.34338773  0.61258154  1
  O  O9  1  0.73079151  0.82257654  0.38739938  1
  O  O10  1  0.57255230  0.68517208  0.59178178  1
  O  O11  1  0.09339711  0.98077409  0.40821599  1
