# generated using pymatgen
data_KMn2O4
_symmetry_space_group_name_H-M   'P 1'
_cell_length_a   2.98429337
_cell_length_b   5.05846357
_cell_length_c   6.50045893
_cell_angle_alpha   105.00119286
_cell_angle_beta   91.18263749
_cell_angle_gamma   93.57382641
_symmetry_Int_Tables_number   1
_chemical_formula_structural   KMn2O4
_chemical_formula_sum   'K1 Mn2 O4'
_cell_volume   94.53310524
_cell_formula_units_Z   1
loop_
 _symmetry_equiv_pos_site_id
 _symmetry_equiv_pos_as_xyz
  1  'x, y, z'
loop_
 _atom_site_type_symbol
 _atom_site_label
 _atom_site_symmetry_multiplicity
 _atom_site_fract_x
 _atom_site_fract_y
 _atom_site_fract_z
 _atom_site_occupancy
  K  K0  1  0.50000000  -0.00000000  0.50000000  1
  Mn  Mn1  1  0.00000000  -0.00000000  0.00000000  1
  Mn  Mn2  1  0.50000000  0.50000000  0.00000000  1
  O  O3  1  0.47452927  0.79015161  0.84638098  1
  O  O4  1  0.03689606  0.25820653  0.83543878  1
  O  O5  1  -0.03689606  0.74179347  0.16456122  1
  O  O6  1  0.52547073  0.20984839  0.15361902  1
