# generated using pymatgen
data_Ti4NiS8
_symmetry_space_group_name_H-M   'P 1'
_cell_length_a   6.64633337
_cell_length_b   6.64633337
_cell_length_c   8.16939211
_cell_angle_alpha   53.60179676
_cell_angle_beta   53.60179676
_cell_angle_gamma   61.87503789
_symmetry_Int_Tables_number   1
_chemical_formula_structural   Ti4NiS8
_chemical_formula_sum   'Ti4 Ni1 S8'
_cell_volume   229.80701612
_cell_formula_units_Z   1
loop_
 _symmetry_equiv_pos_site_id
 _symmetry_equiv_pos_as_xyz
  1  'x, y, z'
loop_
 _atom_site_type_symbol
 _atom_site_label
 _atom_site_symmetry_multiplicity
 _atom_site_fract_x
 _atom_site_fract_y
 _atom_site_fract_z
 _atom_site_occupancy
  Ti  Ti0  1  0.25658482  0.74341518  0.50000000  1
  Ti  Ti1  1  0.74341518  0.25658482  0.50000000  1
  Ti  Ti2  1  0.25980497  0.25980497  0.99687854  1
  Ti  Ti3  1  0.74019503  0.74019503  0.00312146  1
  Ni  Ni4  1  -0.00000000  -0.00000000  0.00000000  1
  S  S5  1  0.96565690  0.96565690  0.32647190  1
  S  S6  1  0.03434310  0.03434310  0.67352810  1
  S  S7  1  0.45607342  0.45607342  0.33465244  1
  S  S8  1  0.54392658  0.54392658  0.66534756  1
  S  S9  1  0.03791503  0.54855253  0.16688003  1
  S  S10  1  0.54855253  0.03791503  0.16688003  1
  S  S11  1  0.96208497  0.45144747  0.83311997  1
  S  S12  1  0.45144747  0.96208497  0.83311997  1
