# generated using pymatgen
data_LaZr2F11
_symmetry_space_group_name_H-M   'P 1'
_cell_length_a   8.47537805
_cell_length_b   8.47536240
_cell_length_c   8.47537693
_cell_angle_alpha   125.16802473
_cell_angle_beta   106.51757143
_cell_angle_gamma   98.03197868
_symmetry_Int_Tables_number   1
_chemical_formula_structural   LaZr2F11
_chemical_formula_sum   'La2 Zr4 F22'
_cell_volume   439.91382448
_cell_formula_units_Z   2
loop_
 _symmetry_equiv_pos_site_id
 _symmetry_equiv_pos_as_xyz
  1  'x, y, z'
loop_
 _atom_site_type_symbol
 _atom_site_label
 _atom_site_symmetry_multiplicity
 _atom_site_fract_x
 _atom_site_fract_y
 _atom_site_fract_z
 _atom_site_occupancy
  La  La0  1  0.74999587  0.74999315  -0.00001203  1
  La  La1  1  0.25000333  0.25000533  0.00001049  1
  Zr  Zr2  1  0.68056266  0.13159680  0.81216134  1
  Zr  Zr3  1  0.31943784  0.86840214  0.18783912  1
  Zr  Zr4  1  0.18055829  0.36840186  0.54896523  1
  Zr  Zr5  1  0.81944123  0.63160088  0.45103594  1
  F  F6  1  0.50000034  -0.00000008  0.50000066  1
  F  F7  1  -0.00000031  0.50000053  0.49999947  1
  F  F8  1  0.78073794  0.36941480  0.15015321  1
  F  F9  1  0.21926121  0.63058374  0.84984560  1
  F  F10  1  0.28073955  0.13058624  0.41132312  1
  F  F11  1  0.71926080  0.86941382  0.58867702  1
  F  F12  1  0.70571503  0.39100694  0.84062694  1
  F  F13  1  0.55038414  0.86509019  0.15938308  1
  F  F14  1  0.94961577  0.10898773  0.31470531  1
  F  F15  1  0.79428678  0.63491098  0.68528981  1
  F  F16  1  0.29428454  0.60899473  0.15937442  1
  F  F17  1  0.44961707  0.13490921  0.84061682  1
  F  F18  1  0.05038217  0.89100946  0.68529204  1
  F  F19  1  0.20571466  0.36509017  0.31471162  1
  F  F20  1  0.94939455  0.23795865  0.91723276  1
  F  F21  1  0.32071663  0.03216344  0.08276600  1
  F  F22  1  0.17928505  0.26204942  0.71144822  1
  F  F23  1  0.55060375  0.46783777  0.28855450  1
  F  F24  1  0.05060476  0.76204127  0.08276810  1
  F  F25  1  0.67928396  0.96783561  0.91723543  1
  F  F26  1  0.82071597  0.73795221  0.28855115  1
  F  F27  1  0.44939642  0.53216301  0.71144561  1
