# generated using pymatgen
data_Ba2CuTeO6
_symmetry_space_group_name_H-M   'P 1'
_cell_length_a   5.59716541
_cell_length_b   5.59727642
_cell_length_c   5.89571359
_cell_angle_alpha   118.34855050
_cell_angle_beta   118.34793103
_cell_angle_gamma   89.98263460
_symmetry_Int_Tables_number   1
_chemical_formula_structural   Ba2CuTeO6
_chemical_formula_sum   'Ba2 Cu1 Te1 O6'
_cell_volume   136.88339784
_cell_formula_units_Z   1
loop_
 _symmetry_equiv_pos_site_id
 _symmetry_equiv_pos_as_xyz
  1  'x, y, z'
loop_
 _atom_site_type_symbol
 _atom_site_label
 _atom_site_symmetry_multiplicity
 _atom_site_fract_x
 _atom_site_fract_y
 _atom_site_fract_z
 _atom_site_occupancy
  Ba  Ba0  1  0.74999983  0.24999983  0.49999965  1
  Ba  Ba1  1  0.25000017  0.75000017  0.50000035  1
  Cu  Cu2  1  -0.00000000  -0.00000000  -0.00000000  1
  Te  Te3  1  0.50000000  0.50000000  -0.00000000  1
  O  O4  1  0.73857819  0.75601080  0.00000000  1
  O  O5  1  0.24400623  0.73856071  -0.00000000  1
  O  O6  1  0.75599377  0.26143929  0.00000000  1
  O  O7  1  0.26142181  0.24398920  -0.00000000  1
  O  O8  1  0.28108839  0.28108839  0.56217578  1
  O  O9  1  0.71891161  0.71891161  0.43782422  1
