# generated using pymatgen
data_EuGa3Pd
_symmetry_space_group_name_H-M   'P 1'
_cell_length_a   6.06941826
_cell_length_b   6.06941826
_cell_length_c   5.91717711
_cell_angle_alpha   90.00000000
_cell_angle_beta   90.00000000
_cell_angle_gamma   116.47568080
_symmetry_Int_Tables_number   1
_chemical_formula_structural   EuGa3Pd
_chemical_formula_sum   'Eu2 Ga6 Pd2'
_cell_volume   195.11548778
_cell_formula_units_Z   2
loop_
 _symmetry_equiv_pos_site_id
 _symmetry_equiv_pos_as_xyz
  1  'x, y, z'
loop_
 _atom_site_type_symbol
 _atom_site_label
 _atom_site_symmetry_multiplicity
 _atom_site_fract_x
 _atom_site_fract_y
 _atom_site_fract_z
 _atom_site_occupancy
  Eu  Eu0  1  0.23356927  0.76643073  0.75000000  1
  Eu  Eu1  1  0.76642973  0.23357027  0.25000000  1
  Ga  Ga2  1  0.66272878  0.33727122  0.75000000  1
  Ga  Ga3  1  0.33727022  0.66272978  0.25000000  1
  Ga  Ga4  1  0.71742689  0.71742689  0.99999800  1
  Ga  Ga5  1  0.71742689  0.71742689  0.50000200  1
  Ga  Ga6  1  0.28257311  0.28257311  0.99999800  1
  Ga  Ga7  1  0.28257311  0.28257311  0.50000200  1
  Pd  Pd8  1  0.90278663  0.09721337  0.75000000  1
  Pd  Pd9  1  0.09721337  0.90278663  0.25000000  1
