# generated using pymatgen
data_Pr(AlZn)2
_symmetry_space_group_name_H-M   'P 1'
_cell_length_a   4.20187873
_cell_length_b   4.20187966
_cell_length_c   6.20306935
_cell_angle_alpha   109.79729980
_cell_angle_beta   109.79730382
_cell_angle_gamma   89.99999446
_symmetry_Int_Tables_number   1
_chemical_formula_structural   Pr(AlZn)2
_chemical_formula_sum   'Pr1 Al2 Zn2'
_cell_volume   96.13925213
_cell_formula_units_Z   1
loop_
 _symmetry_equiv_pos_site_id
 _symmetry_equiv_pos_as_xyz
  1  'x, y, z'
loop_
 _atom_site_type_symbol
 _atom_site_label
 _atom_site_symmetry_multiplicity
 _atom_site_fract_x
 _atom_site_fract_y
 _atom_site_fract_z
 _atom_site_occupancy
  Pr  Pr0  1  -0.00000000  -0.00000000  -0.00000000  1
  Al  Al1  1  0.75000000  0.25000000  0.50000000  1
  Al  Al2  1  0.25000000  0.75000000  0.50000000  1
  Zn  Zn3  1  0.61223102  0.61223102  0.22446103  1
  Zn  Zn4  1  0.38776898  0.38776898  0.77553897  1
