# generated using pymatgen
data_Al2HgSe4
_symmetry_space_group_name_H-M   'P 1'
_cell_length_a   7.67459256
_cell_length_b   7.67459256
_cell_length_c   7.67459256
_cell_angle_alpha   60.00000000
_cell_angle_beta   60.00000000
_cell_angle_gamma   60.00000000
_symmetry_Int_Tables_number   1
_chemical_formula_structural   Al2HgSe4
_chemical_formula_sum   'Al4 Hg2 Se8'
_cell_volume   319.63254044
_cell_formula_units_Z   2
loop_
 _symmetry_equiv_pos_site_id
 _symmetry_equiv_pos_as_xyz
  1  'x, y, z'
loop_
 _atom_site_type_symbol
 _atom_site_label
 _atom_site_symmetry_multiplicity
 _atom_site_fract_x
 _atom_site_fract_y
 _atom_site_fract_z
 _atom_site_occupancy
  Al  Al0  1  -0.00000000  0.00000000  0.50000000  1
  Al  Al1  1  -0.00000000  0.50000000  0.00000000  1
  Al  Al2  1  0.50000000  0.00000000  0.00000000  1
  Al  Al3  1  -0.00000000  0.00000000  0.00000000  1
  Hg  Hg4  1  0.37500000  0.37500000  0.37500000  1
  Hg  Hg5  1  0.62500000  0.62500000  0.62500000  1
  Se  Se6  1  0.23582711  0.23582711  0.79251967  1
  Se  Se7  1  0.23582711  0.79251967  0.23582711  1
  Se  Se8  1  0.79251967  0.23582711  0.23582711  1
  Se  Se9  1  0.23582711  0.23582711  0.23582711  1
  Se  Se10  1  0.76417289  0.76417289  0.20748033  1
  Se  Se11  1  0.76417289  0.20748033  0.76417289  1
  Se  Se12  1  0.20748033  0.76417289  0.76417289  1
  Se  Se13  1  0.76417289  0.76417289  0.76417289  1
