# generated using pymatgen
data_HoCrO4
_symmetry_space_group_name_H-M   'P 1'
_cell_length_a   6.60365463
_cell_length_b   6.60365463
_cell_length_c   6.60365463
_cell_angle_alpha   135.67048816
_cell_angle_beta   135.67048816
_cell_angle_gamma   64.49017911
_symmetry_Int_Tables_number   1
_chemical_formula_structural   HoCrO4
_chemical_formula_sum   'Ho2 Cr2 O8'
_cell_volume   138.66741777
_cell_formula_units_Z   2
loop_
 _symmetry_equiv_pos_site_id
 _symmetry_equiv_pos_as_xyz
  1  'x, y, z'
loop_
 _atom_site_type_symbol
 _atom_site_label
 _atom_site_symmetry_multiplicity
 _atom_site_fract_x
 _atom_site_fract_y
 _atom_site_fract_z
 _atom_site_occupancy
  Ho  Ho0  1  0.50000000  0.50000000  -0.00000000  1
  Ho  Ho1  1  0.25000000  0.75000000  0.50000000  1
  Cr  Cr2  1  0.00000000  -0.00000000  -0.00000000  1
  Cr  Cr3  1  0.75000000  0.25000000  0.50000000  1
  O  O4  1  0.66400503  0.06743034  0.88691736  1
  O  O5  1  0.81743034  0.43051298  0.90342531  1
  O  O6  1  0.52708767  0.91400503  0.09657469  1
  O  O7  1  0.18051298  0.77708767  0.11308264  1
  O  O8  1  0.56948702  0.47291233  0.38691736  1
  O  O9  1  0.22291233  0.33599497  0.40342531  1
  O  O10  1  0.93256966  0.81948702  0.59657469  1
  O  O11  1  0.08599497  0.18256966  0.61308264  1
