# generated using pymatgen
data_PrIn2Ir
_symmetry_space_group_name_H-M   'P 1'
_cell_length_a   5.68231169
_cell_length_b   5.68231169
_cell_length_c   8.00072278
_cell_angle_alpha   90.00000000
_cell_angle_beta   90.00000000
_cell_angle_gamma   134.30840752
_symmetry_Int_Tables_number   1
_chemical_formula_structural   PrIn2Ir
_chemical_formula_sum   'Pr2 In4 Ir2'
_cell_volume   184.86033501
_cell_formula_units_Z   2
loop_
 _symmetry_equiv_pos_site_id
 _symmetry_equiv_pos_as_xyz
  1  'x, y, z'
loop_
 _atom_site_type_symbol
 _atom_site_label
 _atom_site_symmetry_multiplicity
 _atom_site_fract_x
 _atom_site_fract_y
 _atom_site_fract_z
 _atom_site_occupancy
  Pr  Pr0  1  0.56925517  0.43074483  0.25000000  1
  Pr  Pr1  1  0.43074483  0.56925517  0.75000000  1
  In  In2  1  0.85346704  0.14653296  0.05151333  1
  In  In3  1  0.14653296  0.85346704  0.94848667  1
  In  In4  1  0.14653296  0.85346704  0.55151333  1
  In  In5  1  0.85346704  0.14653296  0.44848667  1
  Ir  Ir6  1  0.28133292  0.71866708  0.25000000  1
  Ir  Ir7  1  0.71866708  0.28133292  0.75000000  1
