# generated using pymatgen
data_DyGaPt
_symmetry_space_group_name_H-M   'P 1'
_cell_length_a   4.41056117
_cell_length_b   6.92156311
_cell_length_c   7.59159280
_cell_angle_alpha   89.99735395
_cell_angle_beta   90.00000000
_cell_angle_gamma   90.00000000
_symmetry_Int_Tables_number   1
_chemical_formula_structural   DyGaPt
_chemical_formula_sum   'Dy4 Ga4 Pt4'
_cell_volume   231.75597398
_cell_formula_units_Z   4
loop_
 _symmetry_equiv_pos_site_id
 _symmetry_equiv_pos_as_xyz
  1  'x, y, z'
loop_
 _atom_site_type_symbol
 _atom_site_label
 _atom_site_symmetry_multiplicity
 _atom_site_fract_x
 _atom_site_fract_y
 _atom_site_fract_z
 _atom_site_occupancy
  Dy  Dy0  1  0.25000000  0.98595996  0.30041025  1
  Dy  Dy1  1  0.25000000  0.48596973  0.19961312  1
  Dy  Dy2  1  0.75000000  0.01404004  0.69958975  1
  Dy  Dy3  1  0.75000000  0.51403027  0.80038688  1
  Ga  Ga4  1  0.25000000  0.32605247  0.57727124  1
  Ga  Ga5  1  0.25000000  0.82605501  0.92271215  1
  Ga  Ga6  1  0.75000000  0.67394753  0.42272976  1
  Ga  Ga7  1  0.75000000  0.17394499  0.07728685  1
  Pt  Pt8  1  0.25000000  0.22106062  0.90446172  1
  Pt  Pt9  1  0.25000000  0.72105938  0.59553237  1
  Pt  Pt10  1  0.75000000  0.77893938  0.09553728  1
  Pt  Pt11  1  0.75000000  0.27894062  0.40446763  1
