# generated using pymatgen
data_LaTm(Ge2Ir)2
_symmetry_space_group_name_H-M   'P 1'
_cell_length_a   9.47688778
_cell_length_b   9.47688778
_cell_length_c   9.47688778
_cell_angle_alpha   153.52755048
_cell_angle_beta   124.28946535
_cell_angle_gamma   62.70816217
_symmetry_Int_Tables_number   1
_chemical_formula_structural   LaTm(Ge2Ir)2
_chemical_formula_sum   'La2 Tm2 Ge8 Ir4'
_cell_volume   311.03570688
_cell_formula_units_Z   2
loop_
 _symmetry_equiv_pos_site_id
 _symmetry_equiv_pos_as_xyz
  1  'x, y, z'
loop_
 _atom_site_type_symbol
 _atom_site_label
 _atom_site_symmetry_multiplicity
 _atom_site_fract_x
 _atom_site_fract_y
 _atom_site_fract_z
 _atom_site_occupancy
  La  La0  1  0.26093947  -0.00000000  0.26093947  1
  La  La1  1  0.73906053  0.00000000  0.73906053  1
  Tm  Tm2  1  0.29309420  0.79309420  0.50000000  1
  Tm  Tm3  1  0.70690580  0.20690580  0.50000000  1
  Ge  Ge4  1  0.04964750  0.20161790  0.84802960  1
  Ge  Ge5  1  0.95035250  0.79838210  0.15197040  1
  Ge  Ge6  1  0.64641171  0.79838210  0.84802960  1
  Ge  Ge7  1  0.35358829  0.20161790  0.15197040  1
  Ge  Ge8  1  0.92147193  0.42147193  0.50000000  1
  Ge  Ge9  1  0.41971058  0.41971058  -0.00000000  1
  Ge  Ge10  1  0.07852807  0.57852807  0.50000000  1
  Ge  Ge11  1  0.58028942  0.58028942  -0.00000000  1
  Ir  Ir12  1  0.39642355  0.64921608  0.74720847  1
  Ir  Ir13  1  0.60357645  0.35078392  0.25279153  1
  Ir  Ir14  1  0.90200762  0.64921608  0.25279153  1
  Ir  Ir15  1  0.09799238  0.35078392  0.74720847  1
