# generated using pymatgen
data_Ca(PIr)2
_symmetry_space_group_name_H-M   'P 1'
_cell_length_a   6.62417628
_cell_length_b   6.62417711
_cell_length_c   7.06827117
_cell_angle_alpha   90.00000000
_cell_angle_beta   90.00000000
_cell_angle_gamma   119.99999088
_symmetry_Int_Tables_number   1
_chemical_formula_structural   Ca(PIr)2
_chemical_formula_sum   'Ca3 P6 Ir6'
_cell_volume   268.60104054
_cell_formula_units_Z   3
loop_
 _symmetry_equiv_pos_site_id
 _symmetry_equiv_pos_as_xyz
  1  'x, y, z'
loop_
 _atom_site_type_symbol
 _atom_site_label
 _atom_site_symmetry_multiplicity
 _atom_site_fract_x
 _atom_site_fract_y
 _atom_site_fract_z
 _atom_site_occupancy
  Ca  Ca0  1  0.39515296  0.39515296  0.50000000  1
  Ca  Ca1  1  0.60484704  -0.00000000  0.16666700  1
  Ca  Ca2  1  -0.00000000  0.60484704  0.83333300  1
  P  P3  1  0.88334816  0.22323909  0.54318924  1
  P  P4  1  0.22323909  0.88334816  0.45681076  1
  P  P5  1  0.11665184  0.33989193  0.12347776  1
  P  P6  1  0.77676091  0.66010807  0.20985524  1
  P  P7  1  0.33989193  0.11665184  0.87652224  1
  P  P8  1  0.66010807  0.77676091  0.79014476  1
  Ir  Ir9  1  0.86367437  0.86367437  0.50000000  1
  Ir  Ir10  1  0.13632563  -0.00000000  0.16666700  1
  Ir  Ir11  1  0.48618517  0.48618517  -0.00000000  1
  Ir  Ir12  1  -0.00000000  0.51381483  0.33333300  1
  Ir  Ir13  1  0.51381483  -0.00000000  0.66666700  1
  Ir  Ir14  1  -0.00000000  0.13632563  0.83333300  1
