# generated using pymatgen
data_Rb2GeF6
_symmetry_space_group_name_H-M   'P 1'
_cell_length_a   5.89632919
_cell_length_b   5.89632713
_cell_length_c   9.57353483
_cell_angle_alpha   89.99998137
_cell_angle_beta   90.00003717
_cell_angle_gamma   119.99967456
_symmetry_Int_Tables_number   1
_chemical_formula_structural   Rb2GeF6
_chemical_formula_sum   'Rb4 Ge2 F12'
_cell_volume   288.24890723
_cell_formula_units_Z   2
loop_
 _symmetry_equiv_pos_site_id
 _symmetry_equiv_pos_as_xyz
  1  'x, y, z'
loop_
 _atom_site_type_symbol
 _atom_site_label
 _atom_site_symmetry_multiplicity
 _atom_site_fract_x
 _atom_site_fract_y
 _atom_site_fract_z
 _atom_site_occupancy
  Rb  Rb0  1  0.99999810  0.00000190  0.09578043  1
  Rb  Rb1  1  0.00000190  0.99999810  0.59577943  1
  Rb  Rb2  1  0.66666975  0.33333025  0.37382784  1
  Rb  Rb3  1  0.33333125  0.66666975  0.87382784  1
  Ge  Ge4  1  0.66666661  0.33333339  0.75700231  1
  Ge  Ge5  1  0.33333339  0.66666661  0.25700231  1
  F  F6  1  0.52256492  0.47743508  0.64594033  1
  F  F7  1  0.04512925  0.52256445  0.14593995  1
  F  F8  1  0.47743555  0.95487175  0.14593995  1
  F  F9  1  0.52256445  0.04512925  0.64593995  1
  F  F10  1  0.95487075  0.47743555  0.64593995  1
  F  F11  1  0.47743508  0.52256492  0.14594033  1
  F  F12  1  0.18583176  0.81416824  0.36185642  1
  F  F13  1  0.37166523  0.18583894  0.86185688  1
  F  F14  1  0.81416106  0.62833377  0.86185588  1
  F  F15  1  0.18583894  0.37166623  0.36185688  1
  F  F16  1  0.62833377  0.81416106  0.36185688  1
  F  F17  1  0.81416824  0.18583176  0.86185642  1
