# generated using pymatgen
data_CaLaCrMoO6
_symmetry_space_group_name_H-M   'P 1'
_cell_length_a   5.56365652
_cell_length_b   5.69656500
_cell_length_c   7.86663458
_cell_angle_alpha   89.99689548
_cell_angle_beta   89.17743215
_cell_angle_gamma   90.00096544
_symmetry_Int_Tables_number   1
_chemical_formula_structural   CaLaCrMoO6
_chemical_formula_sum   'Ca2 La2 Cr2 Mo2 O12'
_cell_volume   249.29730646
_cell_formula_units_Z   2
loop_
 _symmetry_equiv_pos_site_id
 _symmetry_equiv_pos_as_xyz
  1  'x, y, z'
loop_
 _atom_site_type_symbol
 _atom_site_label
 _atom_site_symmetry_multiplicity
 _atom_site_fract_x
 _atom_site_fract_y
 _atom_site_fract_z
 _atom_site_occupancy
  Ca  Ca0  1  0.48580600  0.45273800  0.74919700  1
  Ca  Ca1  1  0.98574900  0.04725900  0.24916500  1
  La  La2  1  0.01274800  0.95888100  0.75237500  1
  La  La3  1  0.51269200  0.54112400  0.25232200  1
  Cr  Cr4  1  0.50055900  0.99993400  0.49940400  1
  Cr  Cr5  1  0.00055300  0.50005900  0.99939700  1
  Mo  Mo6  1  0.50025500  0.00105400  0.00053300  1
  Mo  Mo7  1  0.00027700  0.49893300  0.50053500  1
  O  O8  1  0.08480100  0.47110700  0.24774200  1
  O  O9  1  0.58484400  0.02883600  0.74775100  1
  O  O10  1  0.20190500  0.21670700  0.94919000  1
  O  O11  1  0.70194300  0.28330500  0.44913700  1
  O  O12  1  0.20788900  0.20887800  0.54330000  1
  O  O13  1  0.70785600  0.29109100  0.04327800  1
  O  O14  1  0.29701700  0.70678100  0.95440200  1
  O  O15  1  0.79701900  0.79322400  0.45437400  1
  O  O16  1  0.30176400  0.71274300  0.55267200  1
  O  O17  1  0.80181500  0.78725500  0.05262600  1
  O  O18  1  0.40722900  0.97557100  0.25129300  1
  O  O19  1  0.90727600  0.52451900  0.75130500  1
