# generated using pymatgen
data_Lu2Si2O7
_symmetry_space_group_name_H-M   'P 1'
_cell_length_a   6.49300517
_cell_length_b   6.49300517
_cell_length_c   11.84644502
_cell_angle_alpha   90.00000000
_cell_angle_beta   90.00000000
_cell_angle_gamma   90.00000000
_symmetry_Int_Tables_number   1
_chemical_formula_structural   Lu2Si2O7
_chemical_formula_sum   'Lu8 Si8 O28'
_cell_volume   499.43565142
_cell_formula_units_Z   4
loop_
 _symmetry_equiv_pos_site_id
 _symmetry_equiv_pos_as_xyz
  1  'x, y, z'
loop_
 _atom_site_type_symbol
 _atom_site_label
 _atom_site_symmetry_multiplicity
 _atom_site_fract_x
 _atom_site_fract_y
 _atom_site_fract_z
 _atom_site_occupancy
  Lu  Lu0  1  0.64752582  0.12459715  0.36571622  1
  Lu  Lu1  1  0.35247418  0.87540285  0.86571622  1
  Lu  Lu2  1  0.12459715  0.64752582  0.63428378  1
  Lu  Lu3  1  0.62459715  0.85247418  0.11571622  1
  Lu  Lu4  1  0.37540285  0.14752582  0.61571622  1
  Lu  Lu5  1  0.85247418  0.62459715  0.88428378  1
  Lu  Lu6  1  0.14752582  0.37540285  0.38428378  1
  Lu  Lu7  1  0.87540285  0.35247418  0.13428378  1
  Si  Si8  1  0.84741781  0.09910633  0.87876788  1
  Si  Si9  1  0.15258219  0.90089367  0.37876788  1
  Si  Si10  1  0.09910633  0.84741781  0.12123212  1
  Si  Si11  1  0.59910633  0.65258219  0.62876788  1
  Si  Si12  1  0.40089367  0.34741781  0.12876788  1
  Si  Si13  1  0.65258219  0.59910633  0.37123212  1
  Si  Si14  1  0.34741781  0.40089367  0.87123212  1
  Si  Si15  1  0.90089367  0.15258219  0.62123212  1
  O  O16  1  0.86114288  0.30853207  0.95260522  1
  O  O17  1  0.13885712  0.69146793  0.45260522  1
  O  O18  1  0.30853207  0.86114288  0.04739478  1
  O  O19  1  0.80853207  0.63885712  0.70260522  1
  O  O20  1  0.19146793  0.36114288  0.20260522  1
  O  O21  1  0.63885712  0.80853207  0.29739478  1
  O  O22  1  0.36114288  0.19146793  0.79739478  1
  O  O23  1  0.69146793  0.13885712  0.54739478  1
  O  O24  1  0.66385341  0.94526152  0.92688694  1
  O  O25  1  0.33614659  0.05473848  0.42688694  1
  O  O26  1  0.94526152  0.66385341  0.07311306  1
  O  O27  1  0.44526152  0.83614659  0.67688694  1
  O  O28  1  0.55473848  0.16385341  0.17688694  1
  O  O29  1  0.83614659  0.44526152  0.32311306  1
  O  O30  1  0.16385341  0.55473848  0.82311306  1
  O  O31  1  0.05473848  0.33614659  0.57311306  1
  O  O32  1  0.81477380  0.18522620  0.75000000  1
  O  O33  1  0.31477380  0.31477380  -0.00000000  1
  O  O34  1  0.68522620  0.68522620  0.50000000  1
  O  O35  1  0.18522620  0.81477380  0.25000000  1
  O  O36  1  0.06940087  0.96960819  0.62427313  1
  O  O37  1  0.53039181  0.56940087  0.87427313  1
  O  O38  1  0.46960819  0.43059913  0.37427313  1
  O  O39  1  0.56940087  0.53039181  0.12572687  1
  O  O40  1  0.43059913  0.46960819  0.62572687  1
  O  O41  1  0.93059913  0.03039181  0.12427313  1
  O  O42  1  0.96960819  0.06940087  0.37572687  1
  O  O43  1  0.03039181  0.93059913  0.87572687  1
