# generated using pymatgen
data_YbAgSn
_symmetry_space_group_name_H-M   'P 1'
_cell_length_a   4.76644846
_cell_length_b   4.76644846
_cell_length_c   10.27955697
_cell_angle_alpha   90.00000000
_cell_angle_beta   90.00000000
_cell_angle_gamma   119.99999957
_symmetry_Int_Tables_number   1
_chemical_formula_structural   YbAgSn
_chemical_formula_sum   'Yb3 Ag3 Sn3'
_cell_volume   202.25293588
_cell_formula_units_Z   3
loop_
 _symmetry_equiv_pos_site_id
 _symmetry_equiv_pos_as_xyz
  1  'x, y, z'
loop_
 _atom_site_type_symbol
 _atom_site_label
 _atom_site_symmetry_multiplicity
 _atom_site_fract_x
 _atom_site_fract_y
 _atom_site_fract_z
 _atom_site_occupancy
  Yb  Yb0  1  0.66666700  0.33333300  0.00000000  1
  Yb  Yb1  1  0.66666700  0.33333300  0.66736724  1
  Yb  Yb2  1  0.66666700  0.33333300  0.33263276  1
  Ag  Ag3  1  0.00000000  0.00000000  0.80572562  1
  Ag  Ag4  1  0.00000000  0.00000000  0.19427438  1
  Ag  Ag5  1  0.33333300  0.66666700  0.50000000  1
  Sn  Sn6  1  0.33333300  0.66666700  0.83959890  1
  Sn  Sn7  1  0.00000000  0.00000000  0.50000000  1
  Sn  Sn8  1  0.33333300  0.66666700  0.16040110  1
