# generated using pymatgen
data_NdCuGe2
_symmetry_space_group_name_H-M   'P 1'
_cell_length_a   8.86917341
_cell_length_b   8.86917341
_cell_length_c   4.19384343
_cell_angle_alpha   90.00000000
_cell_angle_beta   90.00000000
_cell_angle_gamma   152.17663104
_symmetry_Int_Tables_number   1
_chemical_formula_structural   NdCuGe2
_chemical_formula_sum   'Nd2 Cu2 Ge4'
_cell_volume   153.97861340
_cell_formula_units_Z   2
loop_
 _symmetry_equiv_pos_site_id
 _symmetry_equiv_pos_as_xyz
  1  'x, y, z'
loop_
 _atom_site_type_symbol
 _atom_site_label
 _atom_site_symmetry_multiplicity
 _atom_site_fract_x
 _atom_site_fract_y
 _atom_site_fract_z
 _atom_site_occupancy
  Nd  Nd0  1  0.89559644  0.10440356  0.75000000  1
  Nd  Nd1  1  0.10440356  0.89559644  0.25000000  1
  Cu  Cu2  1  0.67600283  0.32399717  0.75000000  1
  Cu  Cu3  1  0.32399717  0.67600283  0.25000000  1
  Ge  Ge4  1  0.53889606  0.46110394  0.75000000  1
  Ge  Ge5  1  0.46110394  0.53889606  0.25000000  1
  Ge  Ge6  1  0.24925725  0.75074275  0.75000000  1
  Ge  Ge7  1  0.75074275  0.24925725  0.25000000  1
