# generated using pymatgen
data_ErGaAu
_symmetry_space_group_name_H-M   'P 1'
_cell_length_a   5.62651229
_cell_length_b   5.62651229
_cell_length_c   7.02158708
_cell_angle_alpha   52.44800783
_cell_angle_beta   52.44800783
_cell_angle_gamma   46.36270056
_symmetry_Int_Tables_number   1
_chemical_formula_structural   ErGaAu
_chemical_formula_sum   'Er2 Ga2 Au2'
_cell_volume   120.43199918
_cell_formula_units_Z   2
loop_
 _symmetry_equiv_pos_site_id
 _symmetry_equiv_pos_as_xyz
  1  'x, y, z'
loop_
 _atom_site_type_symbol
 _atom_site_label
 _atom_site_symmetry_multiplicity
 _atom_site_fract_x
 _atom_site_fract_y
 _atom_site_fract_z
 _atom_site_occupancy
  Er  Er0  1  0.53688341  0.53688341  0.70274757  1
  Er  Er1  1  0.46311659  0.46311659  0.29725243  1
  Ga  Ga2  1  0.84235426  0.84235426  0.10605342  1
  Ga  Ga3  1  0.15764574  0.15764574  0.89394658  1
  Au  Au4  1  0.17690376  0.17690376  0.28537405  1
  Au  Au5  1  0.82309624  0.82309624  0.71462595  1
