# generated using pymatgen
data_TmTe3
_symmetry_space_group_name_H-M   'P 1'
_cell_length_a   4.30817564
_cell_length_b   4.31828046
_cell_length_c   13.23408624
_cell_angle_alpha   89.99995385
_cell_angle_beta   99.23984436
_cell_angle_gamma   89.99999878
_symmetry_Int_Tables_number   1
_chemical_formula_structural   TmTe3
_chemical_formula_sum   'Tm2 Te6'
_cell_volume   243.01119983
_cell_formula_units_Z   2
loop_
 _symmetry_equiv_pos_site_id
 _symmetry_equiv_pos_as_xyz
  1  'x, y, z'
loop_
 _atom_site_type_symbol
 _atom_site_label
 _atom_site_symmetry_multiplicity
 _atom_site_fract_x
 _atom_site_fract_y
 _atom_site_fract_z
 _atom_site_occupancy
  Tm  Tm0  1  0.17308871  0.75000076  0.34480852  1
  Tm  Tm1  1  0.82691117  0.24999935  0.65519154  1
  Te  Te2  1  0.92161964  0.74999955  0.84644452  1
  Te  Te3  1  0.07838052  0.25000045  0.15355559  1
  Te  Te4  1  0.57783438  0.75000049  0.15392733  1
  Te  Te5  1  0.42216553  0.24999949  0.84607244  1
  Te  Te6  1  0.29228205  0.74999805  0.58563790  1
  Te  Te7  1  0.70771800  0.25000187  0.41436215  1
