# generated using pymatgen
data_Mn2MoP12
_symmetry_space_group_name_H-M   'P 1'
_cell_length_a   8.47587254
_cell_length_b   8.47587254
_cell_length_c   10.55886731
_cell_angle_alpha   65.67430038
_cell_angle_beta   65.67430038
_cell_angle_gamma   39.39362490
_symmetry_Int_Tables_number   1
_chemical_formula_structural   Mn2MoP12
_chemical_formula_sum   'Mn4 Mo2 P24'
_cell_volume   432.88896851
_cell_formula_units_Z   2
loop_
 _symmetry_equiv_pos_site_id
 _symmetry_equiv_pos_as_xyz
  1  'x, y, z'
loop_
 _atom_site_type_symbol
 _atom_site_label
 _atom_site_symmetry_multiplicity
 _atom_site_fract_x
 _atom_site_fract_y
 _atom_site_fract_z
 _atom_site_occupancy
  Mn  Mn0  1  0.37142896  0.98977000  0.45401183  1
  Mn  Mn1  1  0.01023000  0.62857104  0.04598817  1
  Mn  Mn2  1  0.62857104  0.01023000  0.54598817  1
  Mn  Mn3  1  0.98977000  0.37142896  0.95401183  1
  Mo  Mo4  1  0.30510184  0.69489816  0.25000000  1
  Mo  Mo5  1  0.69489816  0.30510184  0.75000000  1
  P  P6  1  0.59563301  0.95014184  0.07499780  1
  P  P7  1  0.04985816  0.40436699  0.42500220  1
  P  P8  1  0.40436699  0.04985816  0.92500220  1
  P  P9  1  0.95014184  0.59563301  0.57499780  1
  P  P10  1  0.57876681  0.29761754  0.16681086  1
  P  P11  1  0.70238246  0.42123319  0.33318914  1
  P  P12  1  0.97856550  0.32845661  0.75859996  1
  P  P13  1  0.67154339  0.02143450  0.74140004  1
  P  P14  1  0.02143450  0.67154339  0.24140004  1
  P  P15  1  0.32845661  0.97856550  0.25859996  1
  P  P16  1  0.01249929  0.92147699  0.92678755  1
  P  P17  1  0.07852301  0.98750071  0.57321245  1
  P  P18  1  0.98750071  0.07852301  0.07321245  1
  P  P19  1  0.92147699  0.01249929  0.42678755  1
  P  P20  1  0.33112851  0.43545216  0.50484969  1
  P  P21  1  0.56454784  0.66887149  0.99515031  1
  P  P22  1  0.66887149  0.56454784  0.49515031  1
  P  P23  1  0.43545216  0.33112851  0.00484969  1
  P  P24  1  0.99766735  0.64631452  0.83647590  1
  P  P25  1  0.35368548  0.00233265  0.66352410  1
  P  P26  1  0.00233265  0.35368548  0.16352410  1
  P  P27  1  0.64631452  0.99766735  0.33647590  1
  P  P28  1  0.29761754  0.57876681  0.66681086  1
  P  P29  1  0.42123319  0.70238246  0.83318914  1
