# generated using pymatgen
data_LuGePt
_symmetry_space_group_name_H-M   'P 1'
_cell_length_a   4.30152393
_cell_length_b   6.84700891
_cell_length_c   7.50471577
_cell_angle_alpha   90.00000000
_cell_angle_beta   90.00000000
_cell_angle_gamma   90.00000000
_symmetry_Int_Tables_number   1
_chemical_formula_structural   LuGePt
_chemical_formula_sum   'Lu4 Ge4 Pt4'
_cell_volume   221.03318662
_cell_formula_units_Z   4
loop_
 _symmetry_equiv_pos_site_id
 _symmetry_equiv_pos_as_xyz
  1  'x, y, z'
loop_
 _atom_site_type_symbol
 _atom_site_label
 _atom_site_symmetry_multiplicity
 _atom_site_fract_x
 _atom_site_fract_y
 _atom_site_fract_z
 _atom_site_occupancy
  Lu  Lu0  1  0.75000000  0.49729461  0.20398568  1
  Lu  Lu1  1  0.25000000  0.00270539  0.70398568  1
  Lu  Lu2  1  0.75000000  0.99729461  0.29601432  1
  Lu  Lu3  1  0.25000000  0.50270539  0.79601432  1
  Ge  Ge4  1  0.25000000  0.69068579  0.41094564  1
  Ge  Ge5  1  0.25000000  0.19068579  0.08905436  1
  Ge  Ge6  1  0.75000000  0.30931421  0.58905436  1
  Ge  Ge7  1  0.75000000  0.80931421  0.91094564  1
  Pt  Pt8  1  0.25000000  0.79300780  0.08412157  1
  Pt  Pt9  1  0.25000000  0.29300780  0.41587843  1
  Pt  Pt10  1  0.75000000  0.70699220  0.58412157  1
  Pt  Pt11  1  0.75000000  0.20699220  0.91587843  1
