# generated using pymatgen
data_Co3Ni
_symmetry_space_group_name_H-M   'P 1'
_cell_length_a   4.94588831
_cell_length_b   4.94589263
_cell_length_c   4.00013232
_cell_angle_alpha   89.99999863
_cell_angle_beta   89.99999974
_cell_angle_gamma   119.99932504
_symmetry_Int_Tables_number   1
_chemical_formula_structural   Co3Ni
_chemical_formula_sum   'Co6 Ni2'
_cell_volume   84.74165303
_cell_formula_units_Z   2
loop_
 _symmetry_equiv_pos_site_id
 _symmetry_equiv_pos_as_xyz
  1  'x, y, z'
loop_
 _atom_site_type_symbol
 _atom_site_label
 _atom_site_symmetry_multiplicity
 _atom_site_fract_x
 _atom_site_fract_y
 _atom_site_fract_z
 _atom_site_occupancy
  Co  Co0  1  0.16499813  0.32999950  0.24999940  1
  Co  Co1  1  0.83500241  0.16500312  0.74999957  1
  Co  Co2  1  0.32999554  0.16499405  0.74999954  1
  Co  Co3  1  0.83500332  0.67000452  0.74999958  1
  Co  Co4  1  0.16499966  0.83500063  0.24999942  1
  Co  Co5  1  0.67000431  0.83500428  0.24999944  1
  Ni  Ni6  1  0.66666568  0.33333294  0.24999938  1
  Ni  Ni7  1  0.33333495  0.66666895  0.74999967  1
