# generated using pymatgen
data_Eu(GaS2)2
_symmetry_space_group_name_H-M   'P 1'
_cell_length_a   5.99203552
_cell_length_b   5.99203552
_cell_length_c   10.42148592
_cell_angle_alpha   90.00000000
_cell_angle_beta   90.00000000
_cell_angle_gamma   119.63723800
_symmetry_Int_Tables_number   1
_chemical_formula_structural   Eu(GaS2)2
_chemical_formula_sum   'Eu2 Ga4 S8'
_cell_volume   325.22580000
_cell_formula_units_Z   2
loop_
 _symmetry_equiv_pos_site_id
 _symmetry_equiv_pos_as_xyz
  1  'x, y, z'
loop_
 _atom_site_type_symbol
 _atom_site_label
 _atom_site_symmetry_multiplicity
 _atom_site_fract_x
 _atom_site_fract_y
 _atom_site_fract_z
 _atom_site_occupancy
  Eu  Eu0  1  0.50000000  0.50000000  0.75000000  1
  Eu  Eu1  1  0.50000000  0.50000000  0.25000000  1
  Ga  Ga2  1  0.76455779  0.23781717  0.50000000  1
  Ga  Ga3  1  0.23544221  0.76218283  0.50000000  1
  Ga  Ga4  1  0.76218283  0.23544221  0.00000000  1
  Ga  Ga5  1  0.23781717  0.76455779  0.00000000  1
  S  S6  1  0.35319980  0.18446806  0.50000000  1
  S  S7  1  0.64680020  0.81553194  0.50000000  1
  S  S8  1  0.81553194  0.64680020  0.00000000  1
  S  S9  1  0.18446806  0.35319980  0.00000000  1
  S  S10  1  0.50000000  0.00000000  0.83407616  1
  S  S11  1  -0.00000000  0.50000000  0.66592384  1
  S  S12  1  0.50000000  0.00000000  0.16592384  1
  S  S13  1  -0.00000000  0.50000000  0.33407616  1
