# generated using pymatgen
data_Pb4SeS3
_symmetry_space_group_name_H-M   'P 1'
_cell_length_a   14.13243344
_cell_length_b   14.13243344
_cell_length_c   14.13243223
_cell_angle_alpha   17.33968146
_cell_angle_beta   17.33968146
_cell_angle_gamma   17.33968612
_symmetry_Int_Tables_number   1
_chemical_formula_structural   Pb4SeS3
_chemical_formula_sum   'Pb4 Se1 S3'
_cell_volume   218.78657380
_cell_formula_units_Z   1
loop_
 _symmetry_equiv_pos_site_id
 _symmetry_equiv_pos_as_xyz
  1  'x, y, z'
loop_
 _atom_site_type_symbol
 _atom_site_label
 _atom_site_symmetry_multiplicity
 _atom_site_fract_x
 _atom_site_fract_y
 _atom_site_fract_z
 _atom_site_occupancy
  Pb  Pb0  1  0.87438482  0.87438482  0.87438482  1
  Pb  Pb1  1  0.12561518  0.12561518  0.12561518  1
  Pb  Pb2  1  0.37720417  0.37720417  0.37720417  1
  Pb  Pb3  1  0.62279583  0.62279583  0.62279583  1
  Se  Se4  1  0.00000000  0.00000000  -0.00000000  1
  S  S5  1  0.24870466  0.24870466  0.24870466  1
  S  S6  1  0.50000000  0.50000000  0.50000000  1
  S  S7  1  0.75129534  0.75129534  0.75129534  1
