# generated using pymatgen
data_Na2GeF6
_symmetry_space_group_name_H-M   'P 1'
_cell_length_a   8.98880666
_cell_length_b   8.98873453
_cell_length_c   5.04850310
_cell_angle_alpha   89.99990443
_cell_angle_beta   89.99983249
_cell_angle_gamma   120.00186278
_symmetry_Int_Tables_number   1
_chemical_formula_structural   Na2GeF6
_chemical_formula_sum   'Na6 Ge3 F18'
_cell_volume   353.25287132
_cell_formula_units_Z   3
loop_
 _symmetry_equiv_pos_site_id
 _symmetry_equiv_pos_as_xyz
  1  'x, y, z'
loop_
 _atom_site_type_symbol
 _atom_site_label
 _atom_site_symmetry_multiplicity
 _atom_site_fract_x
 _atom_site_fract_y
 _atom_site_fract_z
 _atom_site_occupancy
  Na  Na0  1  0.62580646  0.62571494  0.00019340  1
  Na  Na1  1  -0.00006705  0.37421153  0.00020188  1
  Na  Na2  1  0.37430505  0.00012073  0.00017469  1
  Na  Na3  1  0.29104406  0.29087122  0.50010684  1
  Na  Na4  1  -0.00016325  0.70895329  0.50012991  1
  Na  Na5  1  0.70914525  0.00020052  0.50009608  1
  Ge  Ge6  1  0.66665648  0.33332872  0.50415324  1
  Ge  Ge7  1  0.33334615  0.66668684  0.49572929  1
  Ge  Ge8  1  -0.00000946  -0.00002617  0.00011293  1
  F  F9  1  0.08642550  0.19078139  0.20345661  1
  F  F10  1  0.80920702  0.89562890  0.20344397  1
  F  F11  1  0.10435052  0.91356496  0.20343715  1
  F  F12  1  0.89549671  0.80923313  0.79670920  1
  F  F13  1  0.91372950  0.10448769  0.79669137  1
  F  F14  1  0.19074761  0.08625714  0.79668313  1
  F  F15  1  0.55181652  0.40754308  0.70997576  1
  F  F16  1  0.59243982  0.14427384  0.70997355  1
  F  F17  1  0.85572352  0.44816810  0.70998091  1
  F  F18  1  0.47650301  0.22334008  0.29897932  1
  F  F19  1  0.77665006  0.25316085  0.29897626  1
  F  F20  1  0.74683724  0.52349324  0.29898684  1
  F  F21  1  0.25329776  0.77684618  0.70074868  1
  F  F22  1  0.52355107  0.74671328  0.70075093  1
  F  F23  1  0.22314578  0.47644735  0.70075532  1
  F  F24  1  0.40728333  0.55156587  0.28986100  1
  F  F25  1  0.44843590  0.85571279  0.28985637  1
  F  F26  1  0.14429545  0.59272149  0.28983537  1
