# generated using pymatgen
data_HoGaAu
_symmetry_space_group_name_H-M   'P 1'
_cell_length_a   5.64144468
_cell_length_b   5.64144468
_cell_length_c   7.05912228
_cell_angle_alpha   52.38436296
_cell_angle_beta   52.38436296
_cell_angle_gamma   46.31937496
_symmetry_Int_Tables_number   1
_chemical_formula_structural   HoGaAu
_chemical_formula_sum   'Ho2 Ga2 Au2'
_cell_volume   121.50902366
_cell_formula_units_Z   2
loop_
 _symmetry_equiv_pos_site_id
 _symmetry_equiv_pos_as_xyz
  1  'x, y, z'
loop_
 _atom_site_type_symbol
 _atom_site_label
 _atom_site_symmetry_multiplicity
 _atom_site_fract_x
 _atom_site_fract_y
 _atom_site_fract_z
 _atom_site_occupancy
  Ho  Ho0  1  0.53705558  0.53705558  0.70248010  1
  Ho  Ho1  1  0.46294442  0.46294442  0.29751990  1
  Ga  Ga2  1  0.84247120  0.84247120  0.10553906  1
  Ga  Ga3  1  0.15752880  0.15752880  0.89446094  1
  Au  Au4  1  0.17693856  0.17693856  0.28492128  1
  Au  Au5  1  0.82306144  0.82306144  0.71507872  1
