# generated using pymatgen
data_ZrSiMo
_symmetry_space_group_name_H-M   'P 1'
_cell_length_a   3.52482768
_cell_length_b   6.98762046
_cell_length_c   8.21927915
_cell_angle_alpha   90.00000000
_cell_angle_beta   90.00000000
_cell_angle_gamma   90.00000000
_symmetry_Int_Tables_number   1
_chemical_formula_structural   ZrSiMo
_chemical_formula_sum   'Zr4 Si4 Mo4'
_cell_volume   202.44214423
_cell_formula_units_Z   4
loop_
 _symmetry_equiv_pos_site_id
 _symmetry_equiv_pos_as_xyz
  1  'x, y, z'
loop_
 _atom_site_type_symbol
 _atom_site_label
 _atom_site_symmetry_multiplicity
 _atom_site_fract_x
 _atom_site_fract_y
 _atom_site_fract_z
 _atom_site_occupancy
  Zr  Zr0  1  0.25000000  0.04300909  0.33204892  1
  Zr  Zr1  1  0.25000000  0.54300909  0.16795108  1
  Zr  Zr2  1  0.75000000  0.95699091  0.66795008  1
  Zr  Zr3  1  0.75000000  0.45699091  0.83204992  1
  Si  Si4  1  0.25000000  0.25705752  0.63692935  1
  Si  Si5  1  0.25000000  0.75705752  0.86307065  1
  Si  Si6  1  0.75000000  0.74294248  0.36307065  1
  Si  Si7  1  0.75000000  0.24294248  0.13692935  1
  Mo  Mo8  1  0.25000000  0.13119411  0.93899838  1
  Mo  Mo9  1  0.25000000  0.63119411  0.56100162  1
  Mo  Mo10  1  0.75000000  0.86880589  0.06100162  1
  Mo  Mo11  1  0.75000000  0.36880589  0.43899838  1
