# generated using pymatgen
data_TbTe3
_symmetry_space_group_name_H-M   'P 1'
_cell_length_a   4.33698453
_cell_length_b   4.33865721
_cell_length_c   13.34283870
_cell_angle_alpha   90.00000017
_cell_angle_beta   99.35072682
_cell_angle_gamma   89.99999894
_symmetry_Int_Tables_number   1
_chemical_formula_structural   TbTe3
_chemical_formula_sum   'Tb2 Te6'
_cell_volume   247.73192032
_cell_formula_units_Z   2
loop_
 _symmetry_equiv_pos_site_id
 _symmetry_equiv_pos_as_xyz
  1  'x, y, z'
loop_
 _atom_site_type_symbol
 _atom_site_label
 _atom_site_symmetry_multiplicity
 _atom_site_fract_x
 _atom_site_fract_y
 _atom_site_fract_z
 _atom_site_occupancy
  Tb  Tb0  1  0.17137614  0.74999999  0.34259493  1
  Tb  Tb1  1  0.82862386  0.25000001  0.65740507  1
  Te  Te2  1  0.92473865  0.75000000  0.84944929  1
  Te  Te3  1  0.07526134  0.25000000  0.15055070  1
  Te  Te4  1  0.57550182  0.75000000  0.15082230  1
  Te  Te5  1  0.42449818  0.25000000  0.84917769  1
  Te  Te6  1  0.29295406  0.75000000  0.58652296  1
  Te  Te7  1  0.70704594  0.25000000  0.41347706  1
