# generated using pymatgen
data_Tl5Te2Br
_symmetry_space_group_name_H-M   'P 1'
_cell_length_a   9.21696562
_cell_length_b   9.21696562
_cell_length_c   9.21696562
_cell_angle_alpha   120.63296593
_cell_angle_beta   120.63296593
_cell_angle_gamma   88.90712314
_symmetry_Int_Tables_number   1
_chemical_formula_structural   Tl5Te2Br
_chemical_formula_sum   'Tl10 Te4 Br2'
_cell_volume   548.26207871
_cell_formula_units_Z   2
loop_
 _symmetry_equiv_pos_site_id
 _symmetry_equiv_pos_as_xyz
  1  'x, y, z'
loop_
 _atom_site_type_symbol
 _atom_site_label
 _atom_site_symmetry_multiplicity
 _atom_site_fract_x
 _atom_site_fract_y
 _atom_site_fract_z
 _atom_site_occupancy
  Tl  Tl0  1  -0.00000000  0.00000000  -0.00000000  1
  Tl  Tl1  1  0.50000000  0.50000000  -0.00000000  1
  Tl  Tl2  1  0.99569531  0.49569531  0.79436119  1
  Tl  Tl3  1  0.70133412  0.20133412  0.20563881  1
  Tl  Tl4  1  0.49569531  0.70133412  0.50000000  1
  Tl  Tl5  1  0.20133412  0.99569531  0.50000000  1
  Tl  Tl6  1  0.00430469  0.50430469  0.20563881  1
  Tl  Tl7  1  0.29866588  0.79866588  0.79436119  1
  Tl  Tl8  1  0.50430469  0.29866588  0.50000000  1
  Tl  Tl9  1  0.79866588  0.00430469  0.50000000  1
  Te  Te10  1  0.34287098  0.84287098  0.18573996  1
  Te  Te11  1  0.65712902  0.15712902  0.81426004  1
  Te  Te12  1  0.84287098  0.65712902  0.50000000  1
  Te  Te13  1  0.15712902  0.34287098  0.50000000  1
  Br  Br14  1  0.75000000  0.75000000  -0.00000000  1
  Br  Br15  1  0.25000000  0.25000000  -0.00000000  1
