# generated using pymatgen
data_YbAg3
_symmetry_space_group_name_H-M   'P 1'
_cell_length_a   6.12023388
_cell_length_b   6.12023388
_cell_length_c   4.82595102
_cell_angle_alpha   90.00000000
_cell_angle_beta   90.00000000
_cell_angle_gamma   120.00000098
_symmetry_Int_Tables_number   1
_chemical_formula_structural   YbAg3
_chemical_formula_sum   'Yb2 Ag6'
_cell_volume   156.54873925
_cell_formula_units_Z   2
loop_
 _symmetry_equiv_pos_site_id
 _symmetry_equiv_pos_as_xyz
  1  'x, y, z'
loop_
 _atom_site_type_symbol
 _atom_site_label
 _atom_site_symmetry_multiplicity
 _atom_site_fract_x
 _atom_site_fract_y
 _atom_site_fract_z
 _atom_site_occupancy
  Yb  Yb0  1  0.33333300  0.66666700  0.75000000  1
  Yb  Yb1  1  0.66666700  0.33333300  0.25000000  1
  Ag  Ag2  1  0.15929323  0.31858746  0.25000000  1
  Ag  Ag3  1  0.68141254  0.84070677  0.25000000  1
  Ag  Ag4  1  0.15929323  0.84070677  0.25000000  1
  Ag  Ag5  1  0.84070677  0.68141254  0.75000000  1
  Ag  Ag6  1  0.31858746  0.15929323  0.75000000  1
  Ag  Ag7  1  0.84070677  0.15929323  0.75000000  1
