# generated using pymatgen
data_Y2InNi2
_symmetry_space_group_name_H-M   'P 1'
_cell_length_a   3.65064423
_cell_length_b   7.33768220
_cell_length_c   7.33768220
_cell_angle_alpha   90.00000000
_cell_angle_beta   90.00000000
_cell_angle_gamma   90.00000000
_symmetry_Int_Tables_number   1
_chemical_formula_structural   Y2InNi2
_chemical_formula_sum   'Y4 In2 Ni4'
_cell_volume   196.55645361
_cell_formula_units_Z   2
loop_
 _symmetry_equiv_pos_site_id
 _symmetry_equiv_pos_as_xyz
  1  'x, y, z'
loop_
 _atom_site_type_symbol
 _atom_site_label
 _atom_site_symmetry_multiplicity
 _atom_site_fract_x
 _atom_site_fract_y
 _atom_site_fract_z
 _atom_site_occupancy
  Y  Y0  1  0.50000000  0.17715046  0.67715046  1
  Y  Y1  1  0.50000000  0.82284954  0.32284954  1
  Y  Y2  1  0.50000000  0.32284954  0.17715046  1
  Y  Y3  1  0.50000000  0.67715046  0.82284954  1
  In  In4  1  -0.00000000  0.50000000  0.50000000  1
  In  In5  1  -0.00000000  0.00000000  -0.00000000  1
  Ni  Ni6  1  -0.00000000  0.61703430  0.11703430  1
  Ni  Ni7  1  0.00000000  0.38296570  0.88296570  1
  Ni  Ni8  1  -0.00000000  0.88296570  0.61703430  1
  Ni  Ni9  1  0.00000000  0.11703430  0.38296570  1
