# generated using pymatgen
data_Eu3(AlAs2)2
_symmetry_space_group_name_H-M   'P 1'
_cell_length_a   8.44193387
_cell_length_b   8.44193299
_cell_length_c   6.72994085
_cell_angle_alpha   89.79495713
_cell_angle_beta   89.79357647
_cell_angle_gamma   75.57623618
_symmetry_Int_Tables_number   1
_chemical_formula_structural   Eu3(AlAs2)2
_chemical_formula_sum   'Eu6 Al4 As8'
_cell_volume   464.49520634
_cell_formula_units_Z   2
loop_
 _symmetry_equiv_pos_site_id
 _symmetry_equiv_pos_as_xyz
  1  'x, y, z'
loop_
 _atom_site_type_symbol
 _atom_site_label
 _atom_site_symmetry_multiplicity
 _atom_site_fract_x
 _atom_site_fract_y
 _atom_site_fract_z
 _atom_site_occupancy
  Eu  Eu0  1  0.75084045  0.00675805  0.96673402  1
  Eu  Eu1  1  0.99324266  0.24915955  0.53326334  1
  Eu  Eu2  1  0.24915955  0.99324195  0.03326598  1
  Eu  Eu3  1  0.00675734  0.75084045  0.46673666  1
  Eu  Eu4  1  0.59852651  0.40147503  0.25000111  1
  Eu  Eu5  1  0.40147349  0.59852497  0.74999889  1
  Al  Al6  1  0.58065249  0.82879231  0.41550058  1
  Al  Al7  1  0.17120654  0.41935131  0.08449586  1
  Al  Al8  1  0.41934751  0.17120769  0.58449942  1
  Al  Al9  1  0.82879346  0.58064869  0.91550414  1
  As  As10  1  0.71171717  0.05965251  0.47414976  1
  As  As11  1  0.94035523  0.28830495  0.02583460  1
  As  As12  1  0.28828283  0.94034749  0.52585024  1
  As  As13  1  0.05964477  0.71169505  0.97416540  1
  As  As14  1  0.57271314  0.74210002  0.06845775  1
  As  As15  1  0.25790620  0.42727983  0.43153850  1
  As  As16  1  0.42728686  0.25789998  0.93154225  1
  As  As17  1  0.74209380  0.57272017  0.56846150  1
