# generated using pymatgen
data_CaB4O7
_symmetry_space_group_name_H-M   'P 1'
_cell_length_a   4.18328970
_cell_length_b   4.35813659
_cell_length_c   10.56207014
_cell_angle_alpha   90.00000000
_cell_angle_beta   90.00000000
_cell_angle_gamma   90.00000000
_symmetry_Int_Tables_number   1
_chemical_formula_structural   CaB4O7
_chemical_formula_sum   'Ca2 B8 O14'
_cell_volume   192.56077535
_cell_formula_units_Z   2
loop_
 _symmetry_equiv_pos_site_id
 _symmetry_equiv_pos_as_xyz
  1  'x, y, z'
loop_
 _atom_site_type_symbol
 _atom_site_label
 _atom_site_symmetry_multiplicity
 _atom_site_fract_x
 _atom_site_fract_y
 _atom_site_fract_z
 _atom_site_occupancy
  Ca  Ca0  1  0.60429900  0.80011114  0.50000000  1
  Ca  Ca1  1  0.10429900  0.19988886  -0.00000000  1
  B  B2  1  0.61300158  0.17822224  0.25068112  1
  B  B3  1  0.11300158  0.82177776  0.24931888  1
  B  B4  1  0.59131069  0.67338303  0.12042746  1
  B  B5  1  0.09131069  0.32661697  0.37957254  1
  B  B6  1  0.09131069  0.32661697  0.62042746  1
  B  B7  1  0.59131069  0.67338303  0.87957254  1
  B  B8  1  0.11300158  0.82177776  0.75068112  1
  B  B9  1  0.61300158  0.17822224  0.74931888  1
  O  O10  1  0.16774143  0.64792500  0.63764092  1
  O  O11  1  0.66774143  0.35207500  0.13764092  1
  O  O12  1  0.16774143  0.64792500  0.36235908  1
  O  O13  1  0.75018350  0.27716682  0.63352401  1
  O  O14  1  0.75018350  0.27716682  0.36647599  1
  O  O15  1  0.25018350  0.72283318  0.13352401  1
  O  O16  1  0.70092670  0.78390583  -0.00000000  1
  O  O17  1  0.20092670  0.21609417  0.50000000  1
  O  O18  1  0.75404996  0.86274116  0.22516878  1
  O  O19  1  0.25404996  0.13725884  0.27483122  1
  O  O20  1  0.25404996  0.13725884  0.72516878  1
  O  O21  1  0.75404996  0.86274116  0.77483122  1
  O  O22  1  0.25018350  0.72283318  0.86647599  1
  O  O23  1  0.66774143  0.35207500  0.86235908  1
