# generated using pymatgen
data_La(AlGe)2
_symmetry_space_group_name_H-M   'P 1'
_cell_length_a   4.27823657
_cell_length_b   4.27823670
_cell_length_c   7.07799952
_cell_angle_alpha   90.00000000
_cell_angle_beta   90.00000000
_cell_angle_gamma   119.99999889
_symmetry_Int_Tables_number   1
_chemical_formula_structural   La(AlGe)2
_chemical_formula_sum   'La1 Al2 Ge2'
_cell_volume   112.19429408
_cell_formula_units_Z   1
loop_
 _symmetry_equiv_pos_site_id
 _symmetry_equiv_pos_as_xyz
  1  'x, y, z'
loop_
 _atom_site_type_symbol
 _atom_site_label
 _atom_site_symmetry_multiplicity
 _atom_site_fract_x
 _atom_site_fract_y
 _atom_site_fract_z
 _atom_site_occupancy
  La  La0  1  -0.00000000  -0.00000000  -0.00000000  1
  Al  Al1  1  0.66666700  0.33333300  0.36427167  1
  Al  Al2  1  0.33333300  0.66666700  0.63572833  1
  Ge  Ge3  1  0.66666700  0.33333300  0.72692119  1
  Ge  Ge4  1  0.33333300  0.66666700  0.27307881  1
