# generated using pymatgen
data_PrGaPt
_symmetry_space_group_name_H-M   'P 1'
_cell_length_a   4.51949774
_cell_length_b   7.25187784
_cell_length_c   7.71418194
_cell_angle_alpha   90.00000000
_cell_angle_beta   90.00000000
_cell_angle_gamma   90.00000000
_symmetry_Int_Tables_number   1
_chemical_formula_structural   PrGaPt
_chemical_formula_sum   'Pr4 Ga4 Pt4'
_cell_volume   252.83112131
_cell_formula_units_Z   4
loop_
 _symmetry_equiv_pos_site_id
 _symmetry_equiv_pos_as_xyz
  1  'x, y, z'
loop_
 _atom_site_type_symbol
 _atom_site_label
 _atom_site_symmetry_multiplicity
 _atom_site_fract_x
 _atom_site_fract_y
 _atom_site_fract_z
 _atom_site_occupancy
  Pr  Pr0  1  0.75000000  0.48083040  0.80212756  1
  Pr  Pr1  1  0.75000000  0.98083040  0.69787244  1
  Pr  Pr2  1  0.25000000  0.51916960  0.19787244  1
  Pr  Pr3  1  0.25000000  0.01916960  0.30212756  1
  Ga  Ga4  1  0.75000000  0.32922546  0.42181325  1
  Ga  Ga5  1  0.75000000  0.82922546  0.07818675  1
  Ga  Ga6  1  0.25000000  0.67077454  0.57818675  1
  Ga  Ga7  1  0.25000000  0.17077454  0.92181325  1
  Pt  Pt8  1  0.75000000  0.21103264  0.09492018  1
  Pt  Pt9  1  0.75000000  0.71103264  0.40507982  1
  Pt  Pt10  1  0.25000000  0.78896736  0.90507982  1
  Pt  Pt11  1  0.25000000  0.28896736  0.59492018  1
