# generated using pymatgen
data_DyZnRh
_symmetry_space_group_name_H-M   'P 1'
_cell_length_a   3.99719452
_cell_length_b   6.89201861
_cell_length_c   8.06530915
_cell_angle_alpha   90.00000000
_cell_angle_beta   90.00000000
_cell_angle_gamma   90.00000000
_symmetry_Int_Tables_number   1
_chemical_formula_structural   DyZnRh
_chemical_formula_sum   'Dy4 Zn4 Rh4'
_cell_volume   222.18909689
_cell_formula_units_Z   4
loop_
 _symmetry_equiv_pos_site_id
 _symmetry_equiv_pos_as_xyz
  1  'x, y, z'
loop_
 _atom_site_type_symbol
 _atom_site_label
 _atom_site_symmetry_multiplicity
 _atom_site_fract_x
 _atom_site_fract_y
 _atom_site_fract_z
 _atom_site_occupancy
  Dy  Dy0  1  0.25000000  0.53881607  0.81598406  1
  Dy  Dy1  1  0.75000000  0.46118393  0.18401594  1
  Dy  Dy2  1  0.25000000  0.03881607  0.68401594  1
  Dy  Dy3  1  0.75000000  0.96118393  0.31598406  1
  Zn  Zn4  1  0.25000000  0.13616769  0.06298049  1
  Zn  Zn5  1  0.75000000  0.86383231  0.93701951  1
  Zn  Zn6  1  0.25000000  0.63616769  0.43701951  1
  Zn  Zn7  1  0.75000000  0.36383231  0.56298049  1
  Rh  Rh8  1  0.75000000  0.74445271  0.62402852  1
  Rh  Rh9  1  0.25000000  0.25554729  0.37597148  1
  Rh  Rh10  1  0.75000000  0.24445271  0.87597148  1
  Rh  Rh11  1  0.25000000  0.75554729  0.12402852  1
