# generated using pymatgen
data_Y2Ni2Sn
_symmetry_space_group_name_H-M   'P 1'
_cell_length_a   5.43894151
_cell_length_b   5.43894151
_cell_length_c   5.43894151
_cell_angle_alpha   133.75776905
_cell_angle_beta   118.08415498
_cell_angle_gamma   80.65499617
_symmetry_Int_Tables_number   1
_chemical_formula_structural   Y2Ni2Sn
_chemical_formula_sum   'Y2 Ni2 Sn1'
_cell_volume   99.10704986
_cell_formula_units_Z   1
loop_
 _symmetry_equiv_pos_site_id
 _symmetry_equiv_pos_as_xyz
  1  'x, y, z'
loop_
 _atom_site_type_symbol
 _atom_site_label
 _atom_site_symmetry_multiplicity
 _atom_site_fract_x
 _atom_site_fract_y
 _atom_site_fract_z
 _atom_site_occupancy
  Y  Y0  1  0.70322189  0.20322189  0.50000000  1
  Y  Y1  1  0.29677811  0.79677811  0.50000000  1
  Ni  Ni2  1  0.71179623  0.50000000  0.21179623  1
  Ni  Ni3  1  0.28820377  0.50000000  0.78820377  1
  Sn  Sn4  1  -0.00000000  -0.00000000  -0.00000000  1
