# generated using pymatgen
data_Sr(GaAu)2
_symmetry_space_group_name_H-M   'P 1'
_cell_length_a   4.51938283
_cell_length_b   4.51938283
_cell_length_c   10.48263031
_cell_angle_alpha   90.00000000
_cell_angle_beta   90.00000000
_cell_angle_gamma   90.00000000
_symmetry_Int_Tables_number   1
_chemical_formula_structural   Sr(GaAu)2
_chemical_formula_sum   'Sr2 Ga4 Au4'
_cell_volume   214.10584941
_cell_formula_units_Z   2
loop_
 _symmetry_equiv_pos_site_id
 _symmetry_equiv_pos_as_xyz
  1  'x, y, z'
loop_
 _atom_site_type_symbol
 _atom_site_label
 _atom_site_symmetry_multiplicity
 _atom_site_fract_x
 _atom_site_fract_y
 _atom_site_fract_z
 _atom_site_occupancy
  Sr  Sr0  1  0.75000000  0.75000000  0.74973291  1
  Sr  Sr1  1  0.25000000  0.25000000  0.25026709  1
  Ga  Ga2  1  0.75000000  0.75000000  0.12565149  1
  Ga  Ga3  1  0.75000000  0.25000000  0.50000000  1
  Ga  Ga4  1  0.25000000  0.25000000  0.87434851  1
  Ga  Ga5  1  0.25000000  0.75000000  0.50000000  1
  Au  Au6  1  0.25000000  0.25000000  0.62839017  1
  Au  Au7  1  0.25000000  0.75000000  -0.00000000  1
  Au  Au8  1  0.75000000  0.25000000  -0.00000000  1
  Au  Au9  1  0.75000000  0.75000000  0.37160983  1
