# generated using pymatgen
data_HoGaPt
_symmetry_space_group_name_H-M   'P 1'
_cell_length_a   4.39872667
_cell_length_b   6.88349816
_cell_length_c   7.58320655
_cell_angle_alpha   89.99996746
_cell_angle_beta   90.00000000
_cell_angle_gamma   90.00000000
_symmetry_Int_Tables_number   1
_chemical_formula_structural   HoGaPt
_chemical_formula_sum   'Ho4 Ga4 Pt4'
_cell_volume   229.60908213
_cell_formula_units_Z   4
loop_
 _symmetry_equiv_pos_site_id
 _symmetry_equiv_pos_as_xyz
  1  'x, y, z'
loop_
 _atom_site_type_symbol
 _atom_site_label
 _atom_site_symmetry_multiplicity
 _atom_site_fract_x
 _atom_site_fract_y
 _atom_site_fract_z
 _atom_site_occupancy
  Ho  Ho0  1  0.25000000  0.01237130  0.79970659  1
  Ho  Ho1  1  0.25000000  0.51237130  0.70029341  1
  Ho  Ho2  1  0.75000000  0.98762870  0.20029341  1
  Ho  Ho3  1  0.75000000  0.48762970  0.29970659  1
  Ga  Ga4  1  0.25000000  0.17511921  0.42205319  1
  Ga  Ga5  1  0.25000000  0.67511921  0.07794781  1
  Ga  Ga6  1  0.75000000  0.82488079  0.57794681  1
  Ga  Ga7  1  0.75000000  0.32488079  0.92205219  1
  Pt  Pt8  1  0.25000000  0.77753628  0.40587767  1
  Pt  Pt9  1  0.25000000  0.27753728  0.09412133  1
  Pt  Pt10  1  0.75000000  0.22246372  0.59412233  1
  Pt  Pt11  1  0.75000000  0.72246272  0.90587767  1
