# generated using pymatgen
data_Tb3Ga8Au3
_symmetry_space_group_name_H-M   'P 1'
_cell_length_a   8.23993727
_cell_length_b   8.23993727
_cell_length_c   8.23993727
_cell_angle_alpha   149.73536768
_cell_angle_beta   109.14745199
_cell_angle_gamma   78.94756823
_symmetry_Int_Tables_number   1
_chemical_formula_structural   Tb3Ga8Au3
_chemical_formula_sum   'Tb3 Ga8 Au3'
_cell_volume   261.39246750
_cell_formula_units_Z   1
loop_
 _symmetry_equiv_pos_site_id
 _symmetry_equiv_pos_as_xyz
  1  'x, y, z'
loop_
 _atom_site_type_symbol
 _atom_site_label
 _atom_site_symmetry_multiplicity
 _atom_site_fract_x
 _atom_site_fract_y
 _atom_site_fract_z
 _atom_site_occupancy
  Tb  Tb0  1  0.50000000  0.50000000  0.00000000  1
  Tb  Tb1  1  0.19330608  0.19330608  0.00000000  1
  Tb  Tb2  1  0.80669392  0.80669392  0.00000000  1
  Ga  Ga3  1  0.07861317  0.35872068  0.71989250  1
  Ga  Ga4  1  0.92138683  0.64127932  0.28010750  1
  Ga  Ga5  1  0.63882818  0.35872068  0.28010750  1
  Ga  Ga6  1  0.36117182  0.64127932  0.71989250  1
  Ga  Ga7  1  0.79157549  0.16240721  0.62916928  1
  Ga  Ga8  1  0.20842451  0.83759279  0.37083072  1
  Ga  Ga9  1  0.53323793  0.16240721  0.37083072  1
  Ga  Ga10  1  0.46676207  0.83759279  0.62916928  1
  Au  Au11  1  0.00000000  0.50000000  0.50000000  1
  Au  Au12  1  0.79144030  0.00000000  0.79144030  1
  Au  Au13  1  0.20855970  -0.00000000  0.20855970  1
