# generated using pymatgen
data_Ni3Pt
_symmetry_space_group_name_H-M   'P 1'
_cell_length_a   4.42401185
_cell_length_b   4.42401185
_cell_length_c   4.42401185
_cell_angle_alpha   131.56126734
_cell_angle_beta   131.56126734
_cell_angle_gamma   70.92284635
_symmetry_Int_Tables_number   1
_chemical_formula_structural   Ni3Pt
_chemical_formula_sum   'Ni3 Pt1'
_cell_volume   47.47455551
_cell_formula_units_Z   1
loop_
 _symmetry_equiv_pos_site_id
 _symmetry_equiv_pos_as_xyz
  1  'x, y, z'
loop_
 _atom_site_type_symbol
 _atom_site_label
 _atom_site_symmetry_multiplicity
 _atom_site_fract_x
 _atom_site_fract_y
 _atom_site_fract_z
 _atom_site_occupancy
  Ni  Ni0  1  0.75000000  0.24999900  0.50000100  1
  Ni  Ni1  1  0.24999900  0.75000000  0.50000100  1
  Ni  Ni2  1  0.50000000  0.50000000  0.00000000  1
  Pt  Pt3  1  0.00000000  0.00000000  0.00000000  1
