# generated using pymatgen
data_KEr3F10
_symmetry_space_group_name_H-M   'P 1'
_cell_length_a   8.04748508
_cell_length_b   8.04863401
_cell_length_c   8.04867475
_cell_angle_alpha   60.01258502
_cell_angle_beta   60.00679954
_cell_angle_gamma   60.00627614
_symmetry_Int_Tables_number   1
_chemical_formula_structural   KEr3F10
_chemical_formula_sum   'K2 Er6 F20'
_cell_volume   368.70238442
_cell_formula_units_Z   2
loop_
 _symmetry_equiv_pos_site_id
 _symmetry_equiv_pos_as_xyz
  1  'x, y, z'
loop_
 _atom_site_type_symbol
 _atom_site_label
 _atom_site_symmetry_multiplicity
 _atom_site_fract_x
 _atom_site_fract_y
 _atom_site_fract_z
 _atom_site_occupancy
  K  K0  1  0.75012783  0.74959740  0.74973103  1
  K  K1  1  0.24987405  0.25039344  0.25026935  1
  Er  Er2  1  0.23995420  0.75983819  0.24015848  1
  Er  Er3  1  0.75996445  0.24002849  0.24004245  1
  Er  Er4  1  0.24003309  0.75997346  0.75995953  1
  Er  Er5  1  0.23995689  0.24015563  0.75984067  1
  Er  Er6  1  0.76004751  0.24016208  0.75983564  1
  Er  Er7  1  0.76004236  0.75984787  0.24015959  1
  F  F8  1  0.83172155  0.16861485  0.49983370  1
  F  F9  1  0.49999237  0.16876634  0.83125255  1
  F  F10  1  0.83173881  0.49981810  0.16861923  1
  F  F11  1  0.49980477  0.16858393  0.49980214  1
  F  F12  1  0.83208195  0.50003955  0.50003636  1
  F  F13  1  0.16826151  0.50018324  0.83138116  1
  F  F14  1  0.50019556  0.83141619  0.50020084  1
  F  F15  1  0.49980514  0.49979684  0.16857164  1
  F  F16  1  0.88790033  0.33631058  0.88785600  1
  F  F17  1  0.11210124  0.11215698  0.66367430  1
  F  F18  1  0.66414037  0.11198997  0.11197396  1
  F  F19  1  0.11190172  0.11195255  0.11194079  1
  F  F20  1  0.33585988  0.88800963  0.88802690  1
  F  F21  1  0.88809774  0.88804784  0.88805930  1
  F  F22  1  0.88789781  0.88784303  0.33632806  1
  F  F23  1  0.11209886  0.66369015  0.11214449  1
  F  F24  1  0.16827746  0.83138731  0.50016774  1
  F  F25  1  0.50001014  0.83123162  0.16874643  1
  F  F26  1  0.16792031  0.49995905  0.49995998  1
  F  F27  1  0.50019111  0.50020667  0.83142771  1
