# generated using pymatgen
data_K2UTe3
_symmetry_space_group_name_H-M   'P 1'
_cell_length_a   8.00068668
_cell_length_b   8.01077452
_cell_length_c   8.70668806
_cell_angle_alpha   81.01175955
_cell_angle_beta   71.76860997
_cell_angle_gamma   60.04154406
_symmetry_Int_Tables_number   1
_chemical_formula_structural   K2UTe3
_chemical_formula_sum   'K4 U2 Te6'
_cell_volume   459.19755836
_cell_formula_units_Z   2
loop_
 _symmetry_equiv_pos_site_id
 _symmetry_equiv_pos_as_xyz
  1  'x, y, z'
loop_
 _atom_site_type_symbol
 _atom_site_label
 _atom_site_symmetry_multiplicity
 _atom_site_fract_x
 _atom_site_fract_y
 _atom_site_fract_z
 _atom_site_occupancy
  K  K0  1  0.65423540  0.69152901  0.50000018  1
  K  K1  1  0.34576460  0.30847099  0.49999982  1
  K  K2  1  0.00000000  -0.00000000  0.50000000  1
  K  K3  1  0.50000000  -0.00000000  0.00000000  1
  U  U4  1  0.83218596  0.33562929  -0.00000040  1
  U  U5  1  0.16781404  0.66437071  0.00000040  1
  Te  Te6  1  0.20234187  0.99999773  0.78613349  1
  Te  Te7  1  0.57385251  0.37144529  0.78281971  1
  Te  Te8  1  0.94530023  0.62855189  0.78281745  1
  Te  Te9  1  0.42614749  0.62855471  0.21718029  1
  Te  Te10  1  0.05469977  0.37144811  0.21718255  1
  Te  Te11  1  0.79765813  0.00000227  0.21386651  1
