# generated using pymatgen
data_DyNiGe3
_symmetry_space_group_name_H-M   'P 1'
_cell_length_a   10.92504750
_cell_length_b   10.92504750
_cell_length_c   4.07458642
_cell_angle_alpha   90.00000000
_cell_angle_beta   90.00000000
_cell_angle_gamma   158.59203979
_symmetry_Int_Tables_number   1
_chemical_formula_structural   DyNiGe3
_chemical_formula_sum   'Dy2 Ni2 Ge6'
_cell_volume   177.51308185
_cell_formula_units_Z   2
loop_
 _symmetry_equiv_pos_site_id
 _symmetry_equiv_pos_as_xyz
  1  'x, y, z'
loop_
 _atom_site_type_symbol
 _atom_site_label
 _atom_site_symmetry_multiplicity
 _atom_site_fract_x
 _atom_site_fract_y
 _atom_site_fract_z
 _atom_site_occupancy
  Dy  Dy0  1  0.16858293  0.83141707  0.50000000  1
  Dy  Dy1  1  0.83141707  0.16858293  0.50000000  1
  Ni  Ni2  1  0.38960210  0.61039790  0.00000000  1
  Ni  Ni3  1  0.61039790  0.38960210  -0.00000000  1
  Ge  Ge4  1  0.28367280  0.71632720  -0.00000000  1
  Ge  Ge5  1  0.71632720  0.28367280  -0.00000000  1
  Ge  Ge6  1  0.44264535  0.55735465  0.50000000  1
  Ge  Ge7  1  0.55735465  0.44264535  0.50000000  1
  Ge  Ge8  1  0.05746891  0.94253109  -0.00000000  1
  Ge  Ge9  1  0.94253109  0.05746891  0.00000000  1
