# generated using pymatgen
data_NdGeIr
_symmetry_space_group_name_H-M   'P 1'
_cell_length_a   4.46364873
_cell_length_b   7.21255704
_cell_length_c   7.47284317
_cell_angle_alpha   90.00000000
_cell_angle_beta   90.00000000
_cell_angle_gamma   90.00000000
_symmetry_Int_Tables_number   1
_chemical_formula_structural   NdGeIr
_chemical_formula_sum   'Nd4 Ge4 Ir4'
_cell_volume   240.58311233
_cell_formula_units_Z   4
loop_
 _symmetry_equiv_pos_site_id
 _symmetry_equiv_pos_as_xyz
  1  'x, y, z'
loop_
 _atom_site_type_symbol
 _atom_site_label
 _atom_site_symmetry_multiplicity
 _atom_site_fract_x
 _atom_site_fract_y
 _atom_site_fract_z
 _atom_site_occupancy
  Nd  Nd0  1  0.25000000  0.98312643  0.80419398  1
  Nd  Nd1  1  0.25000000  0.48312643  0.69580602  1
  Nd  Nd2  1  0.75000000  0.01687357  0.19580602  1
  Nd  Nd3  1  0.75000000  0.51687357  0.30419398  1
  Ge  Ge4  1  0.25000000  0.82178767  0.41445146  1
  Ge  Ge5  1  0.25000000  0.32178767  0.08554854  1
  Ge  Ge6  1  0.75000000  0.17821233  0.58554854  1
  Ge  Ge7  1  0.75000000  0.67821233  0.91445146  1
  Ir  Ir8  1  0.25000000  0.19559800  0.40936734  1
  Ir  Ir9  1  0.25000000  0.69559800  0.09063266  1
  Ir  Ir10  1  0.75000000  0.80440200  0.59063266  1
  Ir  Ir11  1  0.75000000  0.30440200  0.90936734  1
