# generated using pymatgen
data_Gd2Mo2C3
_symmetry_space_group_name_H-M   'P 1'
_cell_length_a   3.36199430
_cell_length_b   5.76694032
_cell_length_c   6.18445652
_cell_angle_alpha   112.54028850
_cell_angle_beta   105.77203602
_cell_angle_gamma   90.00000204
_symmetry_Int_Tables_number   1
_chemical_formula_structural   Gd2Mo2C3
_chemical_formula_sum   'Gd2 Mo2 C3'
_cell_volume   105.84282554
_cell_formula_units_Z   1
loop_
 _symmetry_equiv_pos_site_id
 _symmetry_equiv_pos_as_xyz
  1  'x, y, z'
loop_
 _atom_site_type_symbol
 _atom_site_label
 _atom_site_symmetry_multiplicity
 _atom_site_fract_x
 _atom_site_fract_y
 _atom_site_fract_z
 _atom_site_occupancy
  Gd  Gd0  1  0.39160636  0.18150146  0.78321072  1
  Gd  Gd1  1  0.60839364  0.81849854  0.21678928  1
  Mo  Mo2  1  0.15799664  0.32438355  0.31599427  1
  Mo  Mo3  1  0.84200336  0.67561645  0.68400573  1
  C  C4  1  0.00000000  -0.00000000  0.00000000  1
  C  C5  1  0.25029903  0.73047859  0.50059606  1
  C  C6  1  0.74970097  0.26952141  0.49940394  1
