# generated using pymatgen
data_Zn(CoO2)2
_symmetry_space_group_name_H-M   'P 1'
_cell_length_a   4.79493772
_cell_length_b   4.79493772
_cell_length_c   9.42026103
_cell_angle_alpha   90.00000000
_cell_angle_beta   90.00000000
_cell_angle_gamma   146.03702661
_symmetry_Int_Tables_number   1
_chemical_formula_structural   Zn(CoO2)2
_chemical_formula_sum   'Zn2 Co4 O8'
_cell_volume   120.99687363
_cell_formula_units_Z   2
loop_
 _symmetry_equiv_pos_site_id
 _symmetry_equiv_pos_as_xyz
  1  'x, y, z'
loop_
 _atom_site_type_symbol
 _atom_site_label
 _atom_site_symmetry_multiplicity
 _atom_site_fract_x
 _atom_site_fract_y
 _atom_site_fract_z
 _atom_site_occupancy
  Zn  Zn0  1  0.60800978  0.39199022  0.75000000  1
  Zn  Zn1  1  0.39199022  0.60800978  0.25000000  1
  Co  Co2  1  0.13491686  0.86508314  0.06914815  1
  Co  Co3  1  0.86508314  0.13491686  0.93085185  1
  Co  Co4  1  0.13491686  0.86508314  0.43085185  1
  Co  Co5  1  0.86508314  0.13491686  0.56914815  1
  O  O6  1  0.76788352  0.23211648  0.39058709  1
  O  O7  1  0.23211648  0.76788352  0.60941291  1
  O  O8  1  0.23211648  0.76788352  0.89058709  1
  O  O9  1  0.76788352  0.23211648  0.10941291  1
  O  O10  1  0.04419890  0.95580110  0.25000000  1
  O  O11  1  0.95580110  0.04419890  0.75000000  1
  O  O12  1  0.50000000  0.50000000  -0.00000000  1
  O  O13  1  0.50000000  0.50000000  0.50000000  1
