# generated using pymatgen
data_CsHSO4
_symmetry_space_group_name_H-M   'P 1'
_cell_length_a   5.76181309
_cell_length_b   8.11526875
_cell_length_c   9.96615710
_cell_angle_alpha   106.16966168
_cell_angle_beta   90.00000000
_cell_angle_gamma   90.00000000
_symmetry_Int_Tables_number   1
_chemical_formula_structural   CsHSO4
_chemical_formula_sum   'Cs4 H4 S4 O16'
_cell_volume   447.56963873
_cell_formula_units_Z   4
loop_
 _symmetry_equiv_pos_site_id
 _symmetry_equiv_pos_as_xyz
  1  'x, y, z'
loop_
 _atom_site_type_symbol
 _atom_site_label
 _atom_site_symmetry_multiplicity
 _atom_site_fract_x
 _atom_site_fract_y
 _atom_site_fract_z
 _atom_site_occupancy
  Cs  Cs0  1  0.75762447  0.63261972  0.34698995  1
  Cs  Cs1  1  0.25762447  0.86738028  0.15301005  1
  Cs  Cs2  1  0.24237553  0.36738028  0.65301005  1
  Cs  Cs3  1  0.74237553  0.13261972  0.84698995  1
  H  H4  1  0.00674154  0.25041565  0.22018865  1
  H  H5  1  0.50674154  0.24958435  0.27981135  1
  H  H6  1  0.99325846  0.74958435  0.77981135  1
  H  H7  1  0.49325846  0.75041565  0.72018865  1
  S  S8  1  0.26404400  0.34743666  0.10250535  1
  S  S9  1  0.76404400  0.15256334  0.39749465  1
  S  S10  1  0.73595600  0.65256334  0.89749465  1
  S  S11  1  0.23595600  0.84743666  0.60250535  1
  O  O12  1  0.25347422  0.51072107  0.20794701  1
  O  O13  1  0.75347422  0.98927893  0.29205299  1
  O  O14  1  0.74652578  0.48927893  0.79205299  1
  O  O15  1  0.24652578  0.01072107  0.70794701  1
  O  O16  1  0.25965365  0.35373097  0.96005900  1
  O  O17  1  0.75965365  0.14626903  0.53994100  1
  O  O18  1  0.74034635  0.64626903  0.03994100  1
  O  O19  1  0.24034635  0.85373097  0.46005900  1
  O  O20  1  0.45898862  0.24249931  0.12908706  1
  O  O21  1  0.95898862  0.25750069  0.37091294  1
  O  O22  1  0.54101138  0.75750069  0.87091294  1
  O  O23  1  0.04101138  0.74249931  0.62908706  1
  O  O24  1  0.03779447  0.24563735  0.11809087  1
  O  O25  1  0.53779447  0.25436265  0.38190913  1
  O  O26  1  0.96220553  0.75436265  0.88190913  1
  O  O27  1  0.46220553  0.74563735  0.61809087  1
