# generated using pymatgen
data_MnBe4Al
_symmetry_space_group_name_H-M   'P 1'
_cell_length_a   4.29322672
_cell_length_b   4.29321081
_cell_length_c   4.29321081
_cell_angle_alpha   60.00000000
_cell_angle_beta   60.00012259
_cell_angle_gamma   60.00012259
_symmetry_Int_Tables_number   1
_chemical_formula_structural   MnBe4Al
_chemical_formula_sum   'Mn1 Be4 Al1'
_cell_volume   55.95437644
_cell_formula_units_Z   1
loop_
 _symmetry_equiv_pos_site_id
 _symmetry_equiv_pos_as_xyz
  1  'x, y, z'
loop_
 _atom_site_type_symbol
 _atom_site_label
 _atom_site_symmetry_multiplicity
 _atom_site_fract_x
 _atom_site_fract_y
 _atom_site_fract_z
 _atom_site_occupancy
  Mn  Mn0  1  0.99999900  -0.00000000  -0.00000000  1
  Be  Be1  1  0.62671925  0.62671825  0.11984424  1
  Be  Be2  1  0.62671925  0.11984424  0.62671825  1
  Be  Be3  1  0.11984524  0.62671825  0.62671825  1
  Be  Be4  1  0.62671925  0.62671825  0.62671825  1
  Al  Al5  1  0.25000000  0.25000000  0.25000000  1
