# generated using pymatgen
data_Ba3CaIr2O9
_symmetry_space_group_name_H-M   'P 1'
_cell_length_a   5.92938351
_cell_length_b   5.92938351
_cell_length_c   14.59492904
_cell_angle_alpha   89.75470082
_cell_angle_beta   89.75470082
_cell_angle_gamma   119.98556807
_symmetry_Int_Tables_number   1
_chemical_formula_structural   Ba3CaIr2O9
_chemical_formula_sum   'Ba6 Ca2 Ir4 O18'
_cell_volume   444.42545669
_cell_formula_units_Z   2
loop_
 _symmetry_equiv_pos_site_id
 _symmetry_equiv_pos_as_xyz
  1  'x, y, z'
loop_
 _atom_site_type_symbol
 _atom_site_label
 _atom_site_symmetry_multiplicity
 _atom_site_fract_x
 _atom_site_fract_y
 _atom_site_fract_z
 _atom_site_occupancy
  Ba  Ba0  1  0.66829815  0.33467764  0.41239502  1
  Ba  Ba1  1  0.66532236  0.33170185  0.08760498  1
  Ba  Ba2  1  0.00060285  0.99939715  0.25000000  1
  Ba  Ba3  1  0.99939715  0.00060285  0.75000000  1
  Ba  Ba4  1  0.33467764  0.66829815  0.91239502  1
  Ba  Ba5  1  0.33170185  0.66532236  0.58760498  1
  Ca  Ca6  1  -0.00000000  -0.00000000  0.00000000  1
  Ca  Ca7  1  -0.00000000  -0.00000000  0.50000000  1
  Ir  Ir8  1  0.66270114  0.32989339  0.66374991  1
  Ir  Ir9  1  0.67010661  0.33729886  0.83625009  1
  Ir  Ir10  1  0.33729886  0.67010661  0.33625009  1
  Ir  Ir11  1  0.32989339  0.66270114  0.16374991  1
  O  O12  1  0.82793466  0.64953558  0.90900569  1
  O  O13  1  0.35046442  0.17206534  0.59099431  1
  O  O14  1  0.17206534  0.35046442  0.09099431  1
  O  O15  1  0.64953558  0.82793466  0.40900569  1
  O  O16  1  0.36533495  0.18661280  0.91419655  1
  O  O17  1  0.81338720  0.63466505  0.58580345  1
  O  O18  1  0.63466505  0.81338720  0.08580345  1
  O  O19  1  0.18661280  0.36533495  0.41419655  1
  O  O20  1  0.82806748  0.18666066  0.91172396  1
  O  O21  1  0.81333934  0.17193252  0.58827604  1
  O  O22  1  0.17193252  0.81333934  0.08827604  1
  O  O23  1  0.18666066  0.82806748  0.41172396  1
  O  O24  1  0.49027729  0.50972271  0.25000000  1
  O  O25  1  0.50972271  0.49027729  0.75000000  1
  O  O26  1  0.02031056  0.50996957  0.25257199  1
  O  O27  1  0.49003043  0.97968944  0.24742801  1
  O  O28  1  0.97968944  0.49003043  0.74742801  1
  O  O29  1  0.50996957  0.02031056  0.75257199  1
