# generated using pymatgen
data_Tm6ReO12
_symmetry_space_group_name_H-M   'P 1'
_cell_length_a   6.33067057
_cell_length_b   6.33067057
_cell_length_c   6.33066995
_cell_angle_alpha   98.83286163
_cell_angle_beta   98.83286167
_cell_angle_gamma   98.83285449
_symmetry_Int_Tables_number   1
_chemical_formula_structural   Tm6ReO12
_chemical_formula_sum   'Tm6 Re1 O12'
_cell_volume   243.62405345
_cell_formula_units_Z   1
loop_
 _symmetry_equiv_pos_site_id
 _symmetry_equiv_pos_as_xyz
  1  'x, y, z'
loop_
 _atom_site_type_symbol
 _atom_site_label
 _atom_site_symmetry_multiplicity
 _atom_site_fract_x
 _atom_site_fract_y
 _atom_site_fract_z
 _atom_site_occupancy
  Tm  Tm0  1  0.68290374  0.85607117  0.38986992  1
  Tm  Tm1  1  0.38986992  0.68290374  0.85607117  1
  Tm  Tm2  1  0.85607117  0.38986992  0.68290374  1
  Tm  Tm3  1  0.31709626  0.14392883  0.61013008  1
  Tm  Tm4  1  0.61013008  0.31709626  0.14392883  1
  Tm  Tm5  1  0.14392883  0.61013008  0.31709626  1
  Re  Re6  1  0.00000000  0.00000000  -0.00000000  1
  O  O7  1  0.43005142  0.58949409  0.17724135  1
  O  O8  1  0.17724135  0.43005142  0.58949409  1
  O  O9  1  0.58949409  0.17724135  0.43005142  1
  O  O10  1  0.56994858  0.41050591  0.82275865  1
  O  O11  1  0.82275865  0.56994858  0.41050591  1
  O  O12  1  0.41050591  0.82275865  0.56994858  1
  O  O13  1  0.92304136  0.03839449  0.70105635  1
  O  O14  1  0.96160551  0.29894365  0.07695864  1
  O  O15  1  0.29894365  0.07695864  0.96160551  1
  O  O16  1  0.07695864  0.96160551  0.29894365  1
  O  O17  1  0.03839449  0.70105635  0.92304136  1
  O  O18  1  0.70105635  0.92304136  0.03839449  1
