# generated using pymatgen
data_TbGaAu
_symmetry_space_group_name_H-M   'P 1'
_cell_length_a   5.67826218
_cell_length_b   5.67826218
_cell_length_c   7.14694007
_cell_angle_alpha   52.22391100
_cell_angle_beta   52.22391100
_cell_angle_gamma   46.24147647
_symmetry_Int_Tables_number   1
_chemical_formula_structural   TbGaAu
_chemical_formula_sum   'Tb2 Ga2 Au2'
_cell_volume   124.14121086
_cell_formula_units_Z   2
loop_
 _symmetry_equiv_pos_site_id
 _symmetry_equiv_pos_as_xyz
  1  'x, y, z'
loop_
 _atom_site_type_symbol
 _atom_site_label
 _atom_site_symmetry_multiplicity
 _atom_site_fract_x
 _atom_site_fract_y
 _atom_site_fract_z
 _atom_site_occupancy
  Tb  Tb0  1  0.53671247  0.53671247  0.70254737  1
  Tb  Tb1  1  0.46328753  0.46328753  0.29745263  1
  Ga  Ga2  1  0.84236984  0.84236984  0.10556294  1
  Ga  Ga3  1  0.15763016  0.15763016  0.89443706  1
  Au  Au4  1  0.17701128  0.17701128  0.28392515  1
  Au  Au5  1  0.82298872  0.82298872  0.71607485  1
