# generated using pymatgen
data_PaGa3
_symmetry_space_group_name_H-M   'P 1'
_cell_length_a   6.28267978
_cell_length_b   6.28267927
_cell_length_c   4.43648700
_cell_angle_alpha   90.00000000
_cell_angle_beta   90.00000000
_cell_angle_gamma   119.99999900
_symmetry_Int_Tables_number   1
_chemical_formula_structural   PaGa3
_chemical_formula_sum   'Pa2 Ga6'
_cell_volume   151.65602330
_cell_formula_units_Z   2
loop_
 _symmetry_equiv_pos_site_id
 _symmetry_equiv_pos_as_xyz
  1  'x, y, z'
loop_
 _atom_site_type_symbol
 _atom_site_label
 _atom_site_symmetry_multiplicity
 _atom_site_fract_x
 _atom_site_fract_y
 _atom_site_fract_z
 _atom_site_occupancy
  Pa  Pa0  1  0.33333300  0.66666700  0.75000000  1
  Pa  Pa1  1  0.66666700  0.33333300  0.25000000  1
  Ga  Ga2  1  0.14691790  0.29383581  0.25000000  1
  Ga  Ga3  1  0.70616419  0.85308210  0.25000000  1
  Ga  Ga4  1  0.14691790  0.85308310  0.25000000  1
  Ga  Ga5  1  0.85308210  0.70616419  0.75000000  1
  Ga  Ga6  1  0.29383581  0.14691790  0.75000000  1
  Ga  Ga7  1  0.85308210  0.14691690  0.75000000  1
