# generated using pymatgen
data_Yb3Pb
_symmetry_space_group_name_H-M   'P 1'
_cell_length_a   6.73440834
_cell_length_b   6.73440834
_cell_length_c   5.53805355
_cell_angle_alpha   90.00000000
_cell_angle_beta   90.00000000
_cell_angle_gamma   119.99999574
_symmetry_Int_Tables_number   1
_chemical_formula_structural   Yb3Pb
_chemical_formula_sum   'Yb6 Pb2'
_cell_volume   217.51373898
_cell_formula_units_Z   2
loop_
 _symmetry_equiv_pos_site_id
 _symmetry_equiv_pos_as_xyz
  1  'x, y, z'
loop_
 _atom_site_type_symbol
 _atom_site_label
 _atom_site_symmetry_multiplicity
 _atom_site_fract_x
 _atom_site_fract_y
 _atom_site_fract_z
 _atom_site_occupancy
  Yb  Yb0  1  0.16807219  0.33614339  0.25000000  1
  Yb  Yb1  1  0.66385661  0.83192781  0.25000000  1
  Yb  Yb2  1  0.16807219  0.83192781  0.25000000  1
  Yb  Yb3  1  0.83192781  0.66385661  0.75000000  1
  Yb  Yb4  1  0.33614339  0.16807219  0.75000000  1
  Yb  Yb5  1  0.83192781  0.16807219  0.75000000  1
  Pb  Pb6  1  0.33333300  0.66666700  0.75000000  1
  Pb  Pb7  1  0.66666700  0.33333300  0.25000000  1
