# generated using pymatgen
data_Co3SiMo2
_symmetry_space_group_name_H-M   'P 1'
_cell_length_a   4.72256421
_cell_length_b   4.72258535
_cell_length_c   7.35059966
_cell_angle_alpha   90.00000000
_cell_angle_beta   90.00000000
_cell_angle_gamma   120.00014936
_symmetry_Int_Tables_number   1
_chemical_formula_structural   Co3SiMo2
_chemical_formula_sum   'Co6 Si2 Mo4'
_cell_volume   141.97452866
_cell_formula_units_Z   2
loop_
 _symmetry_equiv_pos_site_id
 _symmetry_equiv_pos_as_xyz
  1  'x, y, z'
loop_
 _atom_site_type_symbol
 _atom_site_label
 _atom_site_symmetry_multiplicity
 _atom_site_fract_x
 _atom_site_fract_y
 _atom_site_fract_z
 _atom_site_occupancy
  Co  Co0  1  0.82859157  0.17140943  0.25000000  1
  Co  Co1  1  0.82859157  0.65718213  0.25000000  1
  Co  Co2  1  0.34281887  0.17140943  0.25000000  1
  Co  Co3  1  0.17140999  0.82859001  0.75000000  1
  Co  Co4  1  0.17140999  0.34281998  0.75000000  1
  Co  Co5  1  0.65717902  0.82858901  0.75000000  1
  Si  Si6  1  0.00000100  0.00000100  0.49999743  1
  Si  Si7  1  0.00000100  0.00000100  0.00000257  1
  Mo  Mo8  1  0.33333300  0.66666700  0.43230375  1
  Mo  Mo9  1  0.66666600  0.33333200  0.56768126  1
  Mo  Mo10  1  0.66666600  0.33333300  0.93231974  1
  Mo  Mo11  1  0.33333300  0.66666700  0.06769525  1
