# generated using pymatgen
data_Ca5Sb3
_symmetry_space_group_name_H-M   'P 1'
_cell_length_a   8.30052293
_cell_length_b   9.57487106
_cell_length_c   12.60834371
_cell_angle_alpha   90.00000000
_cell_angle_beta   90.00000000
_cell_angle_gamma   90.00000000
_symmetry_Int_Tables_number   1
_chemical_formula_structural   Ca5Sb3
_chemical_formula_sum   'Ca20 Sb12'
_cell_volume   1002.06623184
_cell_formula_units_Z   4
loop_
 _symmetry_equiv_pos_site_id
 _symmetry_equiv_pos_as_xyz
  1  'x, y, z'
loop_
 _atom_site_type_symbol
 _atom_site_label
 _atom_site_symmetry_multiplicity
 _atom_site_fract_x
 _atom_site_fract_y
 _atom_site_fract_z
 _atom_site_occupancy
  Ca  Ca0  1  0.30836044  0.95790213  0.92219901  1
  Ca  Ca1  1  0.80836044  0.04209787  0.57780099  1
  Ca  Ca2  1  0.69163956  0.45790213  0.07780099  1
  Ca  Ca3  1  0.19163956  0.54209787  0.42219901  1
  Ca  Ca4  1  0.69163956  0.04209787  0.07780099  1
  Ca  Ca5  1  0.19163956  0.95790213  0.42219901  1
  Ca  Ca6  1  0.30836044  0.54209787  0.92219901  1
  Ca  Ca7  1  0.80836044  0.45790213  0.57780099  1
  Ca  Ca8  1  0.68151047  0.75000000  0.77227773  1
  Ca  Ca9  1  0.18151047  0.25000000  0.72772227  1
  Ca  Ca10  1  0.31848953  0.25000000  0.22772227  1
  Ca  Ca11  1  0.81848953  0.75000000  0.27227773  1
  Ca  Ca12  1  0.15369614  0.75000000  0.70776139  1
  Ca  Ca13  1  0.65369614  0.25000000  0.79223861  1
  Ca  Ca14  1  0.84630386  0.25000000  0.29223861  1
  Ca  Ca15  1  0.34630386  0.75000000  0.20776139  1
  Ca  Ca16  1  0.53497488  0.75000000  0.49488509  1
  Ca  Ca17  1  0.03497488  0.25000000  0.00511491  1
  Ca  Ca18  1  0.46502512  0.25000000  0.50511491  1
  Ca  Ca19  1  0.96502512  0.75000000  0.99488509  1
  Sb  Sb20  1  0.93823616  0.01201250  0.82900171  1
  Sb  Sb21  1  0.43823616  0.98798750  0.67099829  1
  Sb  Sb22  1  0.06176384  0.51201250  0.17099829  1
  Sb  Sb23  1  0.56176384  0.48798750  0.32900171  1
  Sb  Sb24  1  0.06176384  0.98798750  0.17099829  1
  Sb  Sb25  1  0.56176384  0.01201250  0.32900171  1
  Sb  Sb26  1  0.93823616  0.48798750  0.82900171  1
  Sb  Sb27  1  0.43823616  0.51201250  0.67099829  1
  Sb  Sb28  1  0.57691063  0.75000000  0.01558178  1
  Sb  Sb29  1  0.07691063  0.25000000  0.48441822  1
  Sb  Sb30  1  0.42308937  0.25000000  0.98441822  1
  Sb  Sb31  1  0.92308937  0.75000000  0.51558178  1
