# generated using pymatgen
data_ThGaIr
_symmetry_space_group_name_H-M   'P 1'
_cell_length_a   7.23211436
_cell_length_b   7.23211436
_cell_length_c   4.09048859
_cell_angle_alpha   90.00000000
_cell_angle_beta   90.00000000
_cell_angle_gamma   119.99999838
_symmetry_Int_Tables_number   1
_chemical_formula_structural   ThGaIr
_chemical_formula_sum   'Th3 Ga3 Ir3'
_cell_volume   185.28335010
_cell_formula_units_Z   3
loop_
 _symmetry_equiv_pos_site_id
 _symmetry_equiv_pos_as_xyz
  1  'x, y, z'
loop_
 _atom_site_type_symbol
 _atom_site_label
 _atom_site_symmetry_multiplicity
 _atom_site_fract_x
 _atom_site_fract_y
 _atom_site_fract_z
 _atom_site_occupancy
  Th  Th0  1  0.41527318  0.41527318  0.50000000  1
  Th  Th1  1  0.58472682  -0.00000000  0.50000000  1
  Th  Th2  1  -0.00000000  0.58472682  0.50000000  1
  Ga  Ga3  1  0.76723560  0.76723560  0.00000000  1
  Ga  Ga4  1  0.23276440  -0.00000000  0.00000000  1
  Ga  Ga5  1  -0.00000000  0.23276440  -0.00000000  1
  Ir  Ir6  1  0.66666700  0.33333300  0.00000000  1
  Ir  Ir7  1  0.33333300  0.66666700  -0.00000000  1
  Ir  Ir8  1  -0.00000000  0.00000000  0.50000000  1
