# generated using pymatgen
data_EuZrS3
_symmetry_space_group_name_H-M   'P 1'
_cell_length_a   6.56521830
_cell_length_b   7.15394128
_cell_length_c   9.66588170
_cell_angle_alpha   90.00000000
_cell_angle_beta   90.00000000
_cell_angle_gamma   90.00000000
_symmetry_Int_Tables_number   1
_chemical_formula_structural   EuZrS3
_chemical_formula_sum   'Eu4 Zr4 S12'
_cell_volume   453.97926567
_cell_formula_units_Z   4
loop_
 _symmetry_equiv_pos_site_id
 _symmetry_equiv_pos_as_xyz
  1  'x, y, z'
loop_
 _atom_site_type_symbol
 _atom_site_label
 _atom_site_symmetry_multiplicity
 _atom_site_fract_x
 _atom_site_fract_y
 _atom_site_fract_z
 _atom_site_occupancy
  Eu  Eu0  1  0.46464389  0.59697190  0.25000000  1
  Eu  Eu1  1  0.03535611  0.09697190  0.25000000  1
  Eu  Eu2  1  0.53535611  0.40302810  0.75000000  1
  Eu  Eu3  1  0.96464389  0.90302810  0.75000000  1
  Zr  Zr4  1  -0.00000000  0.50000000  0.00000000  1
  Zr  Zr5  1  0.50000000  -0.00000000  0.50000000  1
  Zr  Zr6  1  -0.00000000  0.50000000  0.50000000  1
  Zr  Zr7  1  0.50000000  -0.00000000  0.00000000  1
  S  S8  1  0.88145073  0.47193614  0.25000000  1
  S  S9  1  0.61854927  0.97193614  0.25000000  1
  S  S10  1  0.11854927  0.52806386  0.75000000  1
  S  S11  1  0.38145073  0.02806386  0.75000000  1
  S  S12  1  0.68014653  0.68998052  0.94080596  1
  S  S13  1  0.81985347  0.18998052  0.55919404  1
  S  S14  1  0.31985347  0.31001948  0.44080596  1
  S  S15  1  0.18014653  0.81001948  0.05919404  1
  S  S16  1  0.31985347  0.31001948  0.05919404  1
  S  S17  1  0.18014653  0.81001948  0.44080596  1
  S  S18  1  0.68014653  0.68998052  0.55919404  1
  S  S19  1  0.81985347  0.18998052  0.94080596  1
