# generated using pymatgen
data_Lu2InNi2
_symmetry_space_group_name_H-M   'P 1'
_cell_length_a   3.44271271
_cell_length_b   7.23597151
_cell_length_c   7.23597151
_cell_angle_alpha   90.00000000
_cell_angle_beta   90.00000000
_cell_angle_gamma   90.00000000
_symmetry_Int_Tables_number   1
_chemical_formula_structural   Lu2InNi2
_chemical_formula_sum   'Lu4 In2 Ni4'
_cell_volume   180.25797146
_cell_formula_units_Z   2
loop_
 _symmetry_equiv_pos_site_id
 _symmetry_equiv_pos_as_xyz
  1  'x, y, z'
loop_
 _atom_site_type_symbol
 _atom_site_label
 _atom_site_symmetry_multiplicity
 _atom_site_fract_x
 _atom_site_fract_y
 _atom_site_fract_z
 _atom_site_occupancy
  Lu  Lu0  1  0.50000000  0.17270805  0.67270805  1
  Lu  Lu1  1  0.50000000  0.82729195  0.32729195  1
  Lu  Lu2  1  0.50000000  0.32729195  0.17270805  1
  Lu  Lu3  1  0.50000000  0.67270805  0.82729195  1
  In  In4  1  -0.00000000  0.50000000  0.50000000  1
  In  In5  1  0.00000000  0.00000000  -0.00000000  1
  Ni  Ni6  1  0.00000000  0.62053217  0.12053217  1
  Ni  Ni7  1  -0.00000000  0.37946783  0.87946783  1
  Ni  Ni8  1  -0.00000000  0.87946783  0.62053217  1
  Ni  Ni9  1  0.00000000  0.12053217  0.37946783  1
