# generated using pymatgen
data_PuB2Rh3
_symmetry_space_group_name_H-M   'P 1'
_cell_length_a   2.89626730
_cell_length_b   5.62021782
_cell_length_c   5.62072083
_cell_angle_alpha   120.00114986
_cell_angle_beta   90.00030813
_cell_angle_gamma   90.00036141
_symmetry_Int_Tables_number   1
_chemical_formula_structural   PuB2Rh3
_chemical_formula_sum   'Pu1 B2 Rh3'
_cell_volume   79.23360254
_cell_formula_units_Z   1
loop_
 _symmetry_equiv_pos_site_id
 _symmetry_equiv_pos_as_xyz
  1  'x, y, z'
loop_
 _atom_site_type_symbol
 _atom_site_label
 _atom_site_symmetry_multiplicity
 _atom_site_fract_x
 _atom_site_fract_y
 _atom_site_fract_z
 _atom_site_occupancy
  Pu  Pu0  1  0.50000000  0.50000000  0.50000000  1
  B  B1  1  0.49999998  0.83315694  0.16659422  1
  B  B2  1  0.50000002  0.16684306  0.83340578  1
  Rh  Rh3  1  0.00000000  0.50000000  0.00000000  1
  Rh  Rh4  1  0.00000000  0.00000000  0.50000000  1
  Rh  Rh5  1  0.00000000  0.00000000  0.00000000  1
