# generated using pymatgen
data_Mn(SbO2)2
_symmetry_space_group_name_H-M   'P 1'
_cell_length_a   6.01248127
_cell_length_b   8.68449002
_cell_length_c   8.68449002
_cell_angle_alpha   90.00000000
_cell_angle_beta   90.00000000
_cell_angle_gamma   90.00000000
_symmetry_Int_Tables_number   1
_chemical_formula_structural   Mn(SbO2)2
_chemical_formula_sum   'Mn4 Sb8 O16'
_cell_volume   453.46354341
_cell_formula_units_Z   4
loop_
 _symmetry_equiv_pos_site_id
 _symmetry_equiv_pos_as_xyz
  1  'x, y, z'
loop_
 _atom_site_type_symbol
 _atom_site_label
 _atom_site_symmetry_multiplicity
 _atom_site_fract_x
 _atom_site_fract_y
 _atom_site_fract_z
 _atom_site_occupancy
  Mn  Mn0  1  0.75000000  0.50000000  0.00000000  1
  Mn  Mn1  1  0.75000000  -0.00000000  0.50000000  1
  Mn  Mn2  1  0.25000000  -0.00000000  0.50000000  1
  Mn  Mn3  1  0.25000000  0.50000000  0.00000000  1
  Sb  Sb4  1  0.00000000  0.82145475  0.83322699  1
  Sb  Sb5  1  0.50000000  0.16677301  0.82145475  1
  Sb  Sb6  1  0.50000000  0.83322699  0.17854525  1
  Sb  Sb7  1  -0.00000000  0.17854525  0.16677301  1
  Sb  Sb8  1  -0.00000000  0.67854525  0.33322699  1
  Sb  Sb9  1  0.00000000  0.32145475  0.66677301  1
  Sb  Sb10  1  0.50000000  0.66677301  0.67854525  1
  Sb  Sb11  1  0.50000000  0.33322699  0.32145475  1
  O  O12  1  0.50000000  0.85509079  0.40172892  1
  O  O13  1  0.50000000  0.14490921  0.59827108  1
  O  O14  1  -0.00000000  0.40172892  0.14490921  1
  O  O15  1  0.00000000  0.59827108  0.85509079  1
  O  O16  1  -0.00000000  0.90172892  0.35509079  1
  O  O17  1  0.50000000  0.64490921  0.90172892  1
  O  O18  1  0.50000000  0.35509079  0.09827108  1
  O  O19  1  0.00000000  0.09827108  0.64490921  1
  O  O20  1  0.75000000  0.67922276  0.17922276  1
  O  O21  1  0.25000000  0.82077724  0.67922276  1
  O  O22  1  0.25000000  0.17922276  0.32077724  1
  O  O23  1  0.75000000  0.32077724  0.82077724  1
  O  O24  1  0.25000000  0.67922276  0.17922276  1
  O  O25  1  0.75000000  0.82077724  0.67922276  1
  O  O26  1  0.75000000  0.17922276  0.32077724  1
  O  O27  1  0.25000000  0.32077724  0.82077724  1
