# generated using pymatgen
data_KBe2BO3F2
_symmetry_space_group_name_H-M   'P 1'
_cell_length_a   4.42142006
_cell_length_b   4.42142006
_cell_length_c   12.41094501
_cell_angle_alpha   79.73938650
_cell_angle_beta   79.73938650
_cell_angle_gamma   60.00000839
_symmetry_Int_Tables_number   1
_chemical_formula_structural   KBe2BO3F2
_chemical_formula_sum   'K2 Be4 B2 O6 F4'
_cell_volume   205.62346120
_cell_formula_units_Z   2
loop_
 _symmetry_equiv_pos_site_id
 _symmetry_equiv_pos_as_xyz
  1  'x, y, z'
loop_
 _atom_site_type_symbol
 _atom_site_label
 _atom_site_symmetry_multiplicity
 _atom_site_fract_x
 _atom_site_fract_y
 _atom_site_fract_z
 _atom_site_occupancy
  K  K0  1  0.50000000  0.50000000  0.50000000  1
  K  K1  1  0.00000000  0.00000000  0.00000000  1
  Be  Be2  1  0.90096515  0.90096415  0.29710655  1
  Be  Be3  1  0.40096515  0.40096415  0.79710655  1
  Be  Be4  1  0.09903485  0.09903585  0.70289345  1
  Be  Be5  1  0.59903485  0.59903585  0.20289345  1
  B  B6  1  0.25000000  0.25000000  0.25000000  1
  B  B7  1  0.75000000  0.75000000  0.75000000  1
  O  O8  1  0.94047547  0.25000000  0.25000000  1
  O  O9  1  0.25000000  0.55952353  0.25000000  1
  O  O10  1  0.55952353  0.94047547  0.25000000  1
  O  O11  1  0.44047547  0.05952353  0.75000000  1
  O  O12  1  0.05952353  0.75000000  0.75000000  1
  O  O13  1  0.75000000  0.44047547  0.75000000  1
  F  F14  1  0.85917336  0.85917236  0.42248192  1
  F  F15  1  0.35917336  0.35917236  0.92248192  1
  F  F16  1  0.14082664  0.14082764  0.57751808  1
  F  F17  1  0.64082664  0.64082764  0.07751808  1
