# generated using pymatgen
data_Sc2Si2Pt3
_symmetry_space_group_name_H-M   'P 1'
_cell_length_a   4.05318496
_cell_length_b   6.38244946
_cell_length_c   8.68987579
_cell_angle_alpha   90.00000000
_cell_angle_beta   90.00000000
_cell_angle_gamma   90.00000000
_symmetry_Int_Tables_number   1
_chemical_formula_structural   Sc2Si2Pt3
_chemical_formula_sum   'Sc4 Si4 Pt6'
_cell_volume   224.80055328
_cell_formula_units_Z   2
loop_
 _symmetry_equiv_pos_site_id
 _symmetry_equiv_pos_as_xyz
  1  'x, y, z'
loop_
 _atom_site_type_symbol
 _atom_site_label
 _atom_site_symmetry_multiplicity
 _atom_site_fract_x
 _atom_site_fract_y
 _atom_site_fract_z
 _atom_site_occupancy
  Sc  Sc0  1  -0.00000000  0.89105251  0.33047963  1
  Sc  Sc1  1  -0.00000000  0.10894749  0.66952037  1
  Sc  Sc2  1  0.00000000  0.39105251  0.16952037  1
  Sc  Sc3  1  0.00000000  0.60894749  0.83047963  1
  Si  Si4  1  0.50000000  0.57444830  0.35080255  1
  Si  Si5  1  0.50000000  0.42555170  0.64919745  1
  Si  Si6  1  0.50000000  0.07444830  0.14919745  1
  Si  Si7  1  0.50000000  0.92555170  0.85080255  1
  Pt  Pt8  1  0.50000000  0.69150396  0.08807710  1
  Pt  Pt9  1  0.50000000  0.30849604  0.91192290  1
  Pt  Pt10  1  0.50000000  0.19150396  0.41192290  1
  Pt  Pt11  1  0.50000000  0.80849604  0.58807710  1
  Pt  Pt12  1  0.00000000  0.50000000  0.50000000  1
  Pt  Pt13  1  0.00000000  0.00000000  -0.00000000  1
