# generated using pymatgen
data_Lu5Ga3
_symmetry_space_group_name_H-M   'P 1'
_cell_length_a   8.37428130
_cell_length_b   8.37428130
_cell_length_c   6.27029276
_cell_angle_alpha   90.00000000
_cell_angle_beta   90.00000000
_cell_angle_gamma   120.00000837
_symmetry_Int_Tables_number   1
_chemical_formula_structural   Lu5Ga3
_chemical_formula_sum   'Lu10 Ga6'
_cell_volume   380.81452414
_cell_formula_units_Z   2
loop_
 _symmetry_equiv_pos_site_id
 _symmetry_equiv_pos_as_xyz
  1  'x, y, z'
loop_
 _atom_site_type_symbol
 _atom_site_label
 _atom_site_symmetry_multiplicity
 _atom_site_fract_x
 _atom_site_fract_y
 _atom_site_fract_z
 _atom_site_occupancy
  Lu  Lu0  1  0.66666700  0.33333300  0.00000000  1
  Lu  Lu1  1  0.33333300  0.66666700  0.00000000  1
  Lu  Lu2  1  0.33333300  0.66666700  0.50000000  1
  Lu  Lu3  1  0.66666700  0.33333300  0.50000000  1
  Lu  Lu4  1  0.75646947  0.75646947  0.75000000  1
  Lu  Lu5  1  0.24353053  1.00000000  0.75000000  1
  Lu  Lu6  1  1.00000000  0.24353053  0.75000000  1
  Lu  Lu7  1  0.24353053  0.24353053  0.25000000  1
  Lu  Lu8  1  0.75646947  0.00000000  0.25000000  1
  Lu  Lu9  1  0.00000000  0.75646947  0.25000000  1
  Ga  Ga10  1  0.39967216  0.39967216  0.75000000  1
  Ga  Ga11  1  0.60032784  1.00000000  0.75000000  1
  Ga  Ga12  1  1.00000000  0.60032784  0.75000000  1
  Ga  Ga13  1  0.60032784  0.60032784  0.25000000  1
  Ga  Ga14  1  0.39967216  0.00000000  0.25000000  1
  Ga  Ga15  1  0.00000000  0.39967216  0.25000000  1
