# generated using pymatgen
data_TmAlGa
_symmetry_space_group_name_H-M   'P 1'
_cell_length_a   5.64360675
_cell_length_b   5.64360675
_cell_length_c   6.92832962
_cell_angle_alpha   53.85762486
_cell_angle_beta   53.85762486
_cell_angle_gamma   43.96294620
_symmetry_Int_Tables_number   1
_chemical_formula_structural   TmAlGa
_chemical_formula_sum   'Tm2 Al2 Ga2'
_cell_volume   118.20904032
_cell_formula_units_Z   2
loop_
 _symmetry_equiv_pos_site_id
 _symmetry_equiv_pos_as_xyz
  1  'x, y, z'
loop_
 _atom_site_type_symbol
 _atom_site_label
 _atom_site_symmetry_multiplicity
 _atom_site_fract_x
 _atom_site_fract_y
 _atom_site_fract_z
 _atom_site_occupancy
  Tm  Tm0  1  0.55941760  0.55941760  0.18658549  1
  Tm  Tm1  1  0.44058240  0.44058240  0.81341451  1
  Al  Al2  1  0.16293295  0.16293295  0.39904486  1
  Al  Al3  1  0.83706705  0.83706705  0.60095514  1
  Ga  Ga4  1  0.83870392  0.83870392  0.20376906  1
  Ga  Ga5  1  0.16129608  0.16129608  0.79623094  1
