# generated using pymatgen
data_UB4W
_symmetry_space_group_name_H-M   'P 1'
_cell_length_a   3.66220786
_cell_length_b   5.97993423
_cell_length_c   5.97993423
_cell_angle_alpha   104.01490165
_cell_angle_beta   90.00000000
_cell_angle_gamma   90.00000000
_symmetry_Int_Tables_number   1
_chemical_formula_structural   UB4W
_chemical_formula_sum   'U2 B8 W2'
_cell_volume   127.06084689
_cell_formula_units_Z   2
loop_
 _symmetry_equiv_pos_site_id
 _symmetry_equiv_pos_as_xyz
  1  'x, y, z'
loop_
 _atom_site_type_symbol
 _atom_site_label
 _atom_site_symmetry_multiplicity
 _atom_site_fract_x
 _atom_site_fract_y
 _atom_site_fract_z
 _atom_site_occupancy
  U  U0  1  -0.00000000  0.30043591  0.69956409  1
  U  U1  1  -0.00000000  0.69956409  0.30043591  1
  B  B2  1  0.50000000  0.93410652  0.61662394  1
  B  B3  1  0.50000000  0.06589348  0.38337606  1
  B  B4  1  0.50000000  0.61662394  0.93410652  1
  B  B5  1  0.50000000  0.38337606  0.06589348  1
  B  B6  1  0.50000000  0.62102078  0.62102078  1
  B  B7  1  0.50000000  0.37897922  0.37897922  1
  B  B8  1  0.50000000  0.09334172  0.90665828  1
  B  B9  1  0.50000000  0.90665828  0.09334172  1
  W  W10  1  0.00000000  0.82131809  0.82131809  1
  W  W11  1  -0.00000000  0.17868191  0.17868191  1
