# generated using pymatgen
data_Y6Zn23
_symmetry_space_group_name_H-M   'P 1'
_cell_length_a   8.89053066
_cell_length_b   8.89053066
_cell_length_c   8.89053066
_cell_angle_alpha   60.00000000
_cell_angle_beta   60.00000000
_cell_angle_gamma   60.00000000
_symmetry_Int_Tables_number   1
_chemical_formula_structural   Y6Zn23
_chemical_formula_sum   'Y6 Zn23'
_cell_volume   496.89892205
_cell_formula_units_Z   1
loop_
 _symmetry_equiv_pos_site_id
 _symmetry_equiv_pos_as_xyz
  1  'x, y, z'
loop_
 _atom_site_type_symbol
 _atom_site_label
 _atom_site_symmetry_multiplicity
 _atom_site_fract_x
 _atom_site_fract_y
 _atom_site_fract_z
 _atom_site_occupancy
  Y  Y0  1  0.70828800  0.70828800  0.29171200  1
  Y  Y1  1  0.29171200  0.70828800  0.29171200  1
  Y  Y2  1  0.70828800  0.29171200  0.29171200  1
  Y  Y3  1  0.29171200  0.29171200  0.70828800  1
  Y  Y4  1  0.70828800  0.29171200  0.70828800  1
  Y  Y5  1  0.29171200  0.70828800  0.70828800  1
  Zn  Zn6  1  0.00000000  -0.00000000  -0.00000000  1
  Zn  Zn7  1  0.00000000  -0.00000000  0.50000000  1
  Zn  Zn8  1  0.50000000  -0.00000000  0.50000000  1
  Zn  Zn9  1  0.00000000  0.50000000  0.50000000  1
  Zn  Zn10  1  0.50000000  0.50000000  -0.00000000  1
  Zn  Zn11  1  0.00000000  0.50000000  -0.00000000  1
  Zn  Zn12  1  0.50000000  -0.00000000  -0.00000000  1
  Zn  Zn13  1  0.87643265  0.87643265  0.37070205  1
  Zn  Zn14  1  0.87643265  0.37070205  0.87643265  1
  Zn  Zn15  1  0.37070205  0.87643265  0.87643265  1
  Zn  Zn16  1  0.87643265  0.87643265  0.87643265  1
  Zn  Zn17  1  0.12356735  0.12356735  0.62929795  1
  Zn  Zn18  1  0.12356735  0.62929795  0.12356735  1
  Zn  Zn19  1  0.62929795  0.12356735  0.12356735  1
  Zn  Zn20  1  0.12356735  0.12356735  0.12356735  1
  Zn  Zn21  1  0.67247275  0.67247275  0.98258275  1
  Zn  Zn22  1  0.67247275  0.98258275  0.67247275  1
  Zn  Zn23  1  0.98258275  0.67247275  0.67247275  1
  Zn  Zn24  1  0.67247275  0.67247275  0.67247275  1
  Zn  Zn25  1  0.32752725  0.32752725  0.01741725  1
  Zn  Zn26  1  0.32752725  0.01741725  0.32752725  1
  Zn  Zn27  1  0.01741725  0.32752725  0.32752725  1
  Zn  Zn28  1  0.32752725  0.32752725  0.32752725  1
