# generated using pymatgen
data_YPS
_symmetry_space_group_name_H-M   'P 1'
_cell_length_a   5.33252137
_cell_length_b   5.37521950
_cell_length_c   16.74605214
_cell_angle_alpha   90.00000000
_cell_angle_beta   90.00000000
_cell_angle_gamma   90.00000000
_symmetry_Int_Tables_number   1
_chemical_formula_structural   YPS
_chemical_formula_sum   'Y8 P8 S8'
_cell_volume   480.00001090
_cell_formula_units_Z   8
loop_
 _symmetry_equiv_pos_site_id
 _symmetry_equiv_pos_as_xyz
  1  'x, y, z'
loop_
 _atom_site_type_symbol
 _atom_site_label
 _atom_site_symmetry_multiplicity
 _atom_site_fract_x
 _atom_site_fract_y
 _atom_site_fract_z
 _atom_site_occupancy
  Y  Y0  1  0.25000000  0.48352273  0.36176500  1
  Y  Y1  1  0.25000000  0.98352273  0.13823500  1
  Y  Y2  1  0.75000000  0.51647727  0.63823500  1
  Y  Y3  1  0.75000000  0.01647727  0.86176500  1
  Y  Y4  1  0.25000000  0.01424375  0.64682908  1
  Y  Y5  1  0.25000000  0.51424375  0.85317092  1
  Y  Y6  1  0.75000000  0.98575625  0.35317092  1
  Y  Y7  1  0.75000000  0.48575625  0.14682908  1
  P  P8  1  0.03915025  0.29637575  0.99707041  1
  P  P9  1  0.46084975  0.79637575  0.50292959  1
  P  P10  1  0.53915025  0.70362425  0.00292959  1
  P  P11  1  0.96084975  0.20362425  0.49707041  1
  P  P12  1  0.96084975  0.70362425  0.00292959  1
  P  P13  1  0.53915025  0.20362425  0.49707041  1
  P  P14  1  0.46084975  0.29637575  0.99707041  1
  P  P15  1  0.03915025  0.79637575  0.50292959  1
  S  S16  1  0.25000000  0.48500655  0.18864473  1
  S  S17  1  0.25000000  0.98500655  0.31135527  1
  S  S18  1  0.75000000  0.51499345  0.81135527  1
  S  S19  1  0.75000000  0.01499345  0.68864473  1
  S  S20  1  0.25000000  0.01077383  0.81595876  1
  S  S21  1  0.25000000  0.51077383  0.68404124  1
  S  S22  1  0.75000000  0.98922617  0.18404124  1
  S  S23  1  0.75000000  0.48922617  0.31595876  1
