# generated using pymatgen
data_ScSiRu
_symmetry_space_group_name_H-M   'P 1'
_cell_length_a   3.35857149
_cell_length_b   6.90351969
_cell_length_c   6.90350494
_cell_angle_alpha   120.00007247
_cell_angle_beta   90.00000000
_cell_angle_gamma   90.00000000
_symmetry_Int_Tables_number   1
_chemical_formula_structural   ScSiRu
_chemical_formula_sum   'Sc3 Si3 Ru3'
_cell_volume   138.61975248
_cell_formula_units_Z   3
loop_
 _symmetry_equiv_pos_site_id
 _symmetry_equiv_pos_as_xyz
  1  'x, y, z'
loop_
 _atom_site_type_symbol
 _atom_site_label
 _atom_site_symmetry_multiplicity
 _atom_site_fract_x
 _atom_site_fract_y
 _atom_site_fract_z
 _atom_site_occupancy
  Sc  Sc0  1  0.50000000  0.59875200  -0.00000000  1
  Sc  Sc1  1  0.50000000  0.40122107  0.40123046  1
  Sc  Sc2  1  0.50000000  0.99999061  0.59876954  1
  Si  Si3  1  -0.00000000  0.33332193  0.66666683  1
  Si  Si4  1  -0.00000000  0.66665510  0.33333317  1
  Si  Si5  1  0.50000000  0.99998931  -0.00000000  1
  Ru  Ru6  1  -0.00000000  0.25161650  0.00000000  1
  Ru  Ru7  1  -0.00000000  0.74836357  0.74837266  1
  Ru  Ru8  1  -0.00000000  0.99998991  0.25162734  1
