# generated using pymatgen
data_CeNiGe
_symmetry_space_group_name_H-M   'P 1'
_cell_length_a   4.17066606
_cell_length_b   4.17066606
_cell_length_c   7.61874534
_cell_angle_alpha   90.00000000
_cell_angle_beta   90.00000000
_cell_angle_gamma   120.00134483
_symmetry_Int_Tables_number   1
_chemical_formula_structural   CeNiGe
_chemical_formula_sum   'Ce2 Ni2 Ge2'
_cell_volume   114.76753101
_cell_formula_units_Z   2
loop_
 _symmetry_equiv_pos_site_id
 _symmetry_equiv_pos_as_xyz
  1  'x, y, z'
loop_
 _atom_site_type_symbol
 _atom_site_label
 _atom_site_symmetry_multiplicity
 _atom_site_fract_x
 _atom_site_fract_y
 _atom_site_fract_z
 _atom_site_occupancy
  Ce  Ce0  1  0.00000000  -0.00000000  0.50000000  1
  Ce  Ce1  1  0.00000000  -0.00000000  -0.00000000  1
  Ni  Ni2  1  0.66680841  0.33319159  0.75000000  1
  Ni  Ni3  1  0.33319159  0.66680841  0.25000000  1
  Ge  Ge4  1  0.66659536  0.33340464  0.25000000  1
  Ge  Ge5  1  0.33340464  0.66659536  0.75000000  1
