# generated using pymatgen
data_YMnO3
_symmetry_space_group_name_H-M   'P 1'
_cell_length_a   6.13798979
_cell_length_b   6.13799010
_cell_length_c   11.44042308
_cell_angle_alpha   90.00000087
_cell_angle_beta   89.99999817
_cell_angle_gamma   119.99938510
_symmetry_Int_Tables_number   1
_chemical_formula_structural   YMnO3
_chemical_formula_sum   'Y6 Mn6 O18'
_cell_volume   373.27401061
_cell_formula_units_Z   6
loop_
 _symmetry_equiv_pos_site_id
 _symmetry_equiv_pos_as_xyz
  1  'x, y, z'
loop_
 _atom_site_type_symbol
 _atom_site_label
 _atom_site_symmetry_multiplicity
 _atom_site_fract_x
 _atom_site_fract_y
 _atom_site_fract_z
 _atom_site_occupancy
  Y  Y0  1  0.66666654  0.33333335  0.23314869  1
  Y  Y1  1  0.33333355  0.66666671  0.73314666  1
  Y  Y2  1  0.66666664  0.33333349  0.73314669  1
  Y  Y3  1  0.33333320  0.66666646  0.23314868  1
  Y  Y4  1  -0.00000010  -0.00000011  0.77666332  1
  Y  Y5  1  0.00000022  0.00000018  0.27666086  1
  Mn  Mn6  1  0.66625727  -0.00000887  0.50146563  1
  Mn  Mn7  1  0.66627233  0.66627240  0.00146717  1
  Mn  Mn8  1  0.00000903  0.33374367  0.00146753  1
  Mn  Mn9  1  -0.00000907  0.66625716  0.50146567  1
  Mn  Mn10  1  0.33372675  0.33372682  0.50146516  1
  Mn  Mn11  1  0.33374364  0.00000914  0.00146754  1
  O  O12  1  0.66666599  0.33333273  0.01969098  1
  O  O13  1  0.33333389  0.66666717  0.51968877  1
  O  O14  1  0.66666707  0.33333379  0.51968879  1
  O  O15  1  0.33333255  0.66666615  0.01969098  1
  O  O16  1  -0.00000115  -0.00000094  0.97913859  1
  O  O17  1  0.00000109  0.00000113  0.47914055  1
  O  O18  1  0.35916847  0.00000098  0.83833653  1
  O  O19  1  0.35916325  0.35916318  0.33833950  1
  O  O20  1  -0.00000087  0.64083466  0.33833936  1
  O  O21  1  0.00000087  0.35916839  0.83833653  1
  O  O22  1  0.64083322  0.64083321  0.83833673  1
  O  O23  1  0.64083470  -0.00000086  0.33833940  1
  O  O24  1  0.30697275  0.00000112  0.16470307  1
  O  O25  1  0.30696856  0.30696851  0.66470363  1
  O  O26  1  -0.00000107  0.69302975  0.66470328  1
  O  O27  1  0.00000101  0.30697271  0.16470307  1
  O  O28  1  0.69302895  0.69302897  0.16470337  1
  O  O29  1  0.69302970  -0.00000104  0.66470328  1
