# generated using pymatgen
data_Ta(MnB2)2
_symmetry_space_group_name_H-M   'P 1'
_cell_length_a   6.82869680
_cell_length_b   6.82869680
_cell_length_c   6.82869680
_cell_angle_alpha   154.41730745
_cell_angle_beta   153.20039601
_cell_angle_gamma   37.38704419
_symmetry_Int_Tables_number   1
_chemical_formula_structural   Ta(MnB2)2
_chemical_formula_sum   'Ta1 Mn2 B4'
_cell_volume   61.90503999
_cell_formula_units_Z   1
loop_
 _symmetry_equiv_pos_site_id
 _symmetry_equiv_pos_as_xyz
  1  'x, y, z'
loop_
 _atom_site_type_symbol
 _atom_site_label
 _atom_site_symmetry_multiplicity
 _atom_site_fract_x
 _atom_site_fract_y
 _atom_site_fract_z
 _atom_site_occupancy
  Ta  Ta0  1  -0.00000000  0.50000000  0.50000000  1
  Mn  Mn1  1  0.18772409  0.18772409  -0.00000000  1
  Mn  Mn2  1  0.81227591  0.81227591  0.00000000  1
  B  B3  1  0.35497400  0.35497400  -0.00000000  1
  B  B4  1  0.64502600  0.64502600  0.00000000  1
  B  B5  1  0.42886583  0.92886583  0.50000000  1
  B  B6  1  0.57113417  0.07113417  0.50000000  1
