# generated using pymatgen
data_Ag3Sb
_symmetry_space_group_name_H-M   'P 1'
_cell_length_a   4.86574281
_cell_length_b   5.31598564
_cell_length_c   6.02640496
_cell_angle_alpha   90.00000000
_cell_angle_beta   90.00000000
_cell_angle_gamma   90.00000000
_symmetry_Int_Tables_number   1
_chemical_formula_structural   Ag3Sb
_chemical_formula_sum   'Ag6 Sb2'
_cell_volume   155.88030991
_cell_formula_units_Z   2
loop_
 _symmetry_equiv_pos_site_id
 _symmetry_equiv_pos_as_xyz
  1  'x, y, z'
loop_
 _atom_site_type_symbol
 _atom_site_label
 _atom_site_symmetry_multiplicity
 _atom_site_fract_x
 _atom_site_fract_y
 _atom_site_fract_z
 _atom_site_occupancy
  Ag  Ag0  1  0.75000000  0.67368136  0.25000000  1
  Ag  Ag1  1  0.25000000  0.32631864  0.75000000  1
  Ag  Ag2  1  0.25000000  0.84618555  0.50200195  1
  Ag  Ag3  1  0.75000000  0.15381445  0.49799805  1
  Ag  Ag4  1  0.25000000  0.84618555  0.99799805  1
  Ag  Ag5  1  0.75000000  0.15381445  0.00200195  1
  Sb  Sb6  1  0.25000000  0.32982160  0.25000000  1
  Sb  Sb7  1  0.75000000  0.67017840  0.75000000  1
