# generated using pymatgen
data_Ba3Ge5
_symmetry_space_group_name_H-M   'P 1'
_cell_length_a   6.78479760
_cell_length_b   6.78479760
_cell_length_c   10.42094495
_cell_angle_alpha   90.00000000
_cell_angle_beta   90.00000000
_cell_angle_gamma   100.17883846
_symmetry_Int_Tables_number   1
_chemical_formula_structural   Ba3Ge5
_chemical_formula_sum   'Ba6 Ge10'
_cell_volume   472.16212576
_cell_formula_units_Z   2
loop_
 _symmetry_equiv_pos_site_id
 _symmetry_equiv_pos_as_xyz
  1  'x, y, z'
loop_
 _atom_site_type_symbol
 _atom_site_label
 _atom_site_symmetry_multiplicity
 _atom_site_fract_x
 _atom_site_fract_y
 _atom_site_fract_z
 _atom_site_occupancy
  Ba  Ba0  1  0.65502763  0.65502763  0.25000000  1
  Ba  Ba1  1  0.34497237  0.34497237  0.75000000  1
  Ba  Ba2  1  0.78937157  0.21062843  0.50000000  1
  Ba  Ba3  1  0.78937157  0.21062843  0.00000000  1
  Ba  Ba4  1  0.21062843  0.78937157  0.50000000  1
  Ba  Ba5  1  0.21062843  0.78937157  0.00000000  1
  Ge  Ge6  1  0.10752430  0.46365619  0.25000000  1
  Ge  Ge7  1  0.53634381  0.89247570  0.75000000  1
  Ge  Ge8  1  0.89247570  0.53634381  0.75000000  1
  Ge  Ge9  1  0.46365619  0.10752430  0.25000000  1
  Ge  Ge10  1  0.07309282  0.07309282  0.25000000  1
  Ge  Ge11  1  0.92690718  0.92690718  0.75000000  1
  Ge  Ge12  1  0.29476024  0.29476024  0.42626404  1
  Ge  Ge13  1  0.70523976  0.70523976  0.57373596  1
  Ge  Ge14  1  0.29476024  0.29476024  0.07373596  1
  Ge  Ge15  1  0.70523976  0.70523976  0.92626404  1
