# generated using pymatgen
data_SrU(SeO4)2
_symmetry_space_group_name_H-M   'P 1'
_cell_length_a   5.81231600
_cell_length_b   6.88887019
_cell_length_c   11.47307535
_cell_angle_alpha   104.76538068
_cell_angle_beta   94.04440417
_cell_angle_gamma   109.42836122
_symmetry_Int_Tables_number   1
_chemical_formula_structural   SrU(SeO4)2
_chemical_formula_sum   'Sr2 U2 Se4 O16'
_cell_volume   412.80096662
_cell_formula_units_Z   2
loop_
 _symmetry_equiv_pos_site_id
 _symmetry_equiv_pos_as_xyz
  1  'x, y, z'
loop_
 _atom_site_type_symbol
 _atom_site_label
 _atom_site_symmetry_multiplicity
 _atom_site_fract_x
 _atom_site_fract_y
 _atom_site_fract_z
 _atom_site_occupancy
  Sr  Sr0  1  0.76937900  0.18871800  0.56254800  1
  Sr  Sr1  1  0.23062100  0.81128200  0.43745200  1
  U  U2  1  0.00572800  0.09945300  0.16320400  1
  U  U3  1  0.99427200  0.90054700  0.83679600  1
  Se  Se4  1  0.82099500  0.31341900  0.87767100  1
  Se  Se5  1  0.38582800  0.35007700  0.34168900  1
  Se  Se6  1  0.17900500  0.68658100  0.12232900  1
  Se  Se7  1  0.61417200  0.64992300  0.65831100  1
  O  O8  1  0.06346800  0.83542000  0.02969200  1
  O  O9  1  0.96175400  0.42575300  0.15765900  1
  O  O10  1  0.65181900  0.75436000  0.91095200  1
  O  O11  1  0.34818100  0.24564000  0.08904800  1
  O  O12  1  0.49299100  0.19520700  0.42684500  1
  O  O13  1  0.92871700  0.22722800  0.75273600  1
  O  O14  1  0.33863900  0.05300200  0.75704700  1
  O  O15  1  0.23191200  0.45151500  0.44253200  1
  O  O16  1  0.66136100  0.94699800  0.24295300  1
  O  O17  1  0.93653200  0.16458000  0.97030800  1
  O  O18  1  0.50700900  0.80479300  0.57315500  1
  O  O19  1  0.07128300  0.77277200  0.24726400  1
  O  O20  1  0.76808800  0.54848500  0.55746800  1
  O  O21  1  0.90106600  0.86273600  0.65858800  1
  O  O22  1  0.09893400  0.13726400  0.34141200  1
  O  O23  1  0.03824600  0.57424700  0.84234100  1
