# generated using pymatgen
data_CrF4
_symmetry_space_group_name_H-M   'P 1'
_cell_length_a   6.43428424
_cell_length_b   6.43428424
_cell_length_c   6.43428424
_cell_angle_alpha   129.34737757
_cell_angle_beta   129.34737757
_cell_angle_gamma   74.45226707
_symmetry_Int_Tables_number   1
_chemical_formula_structural   CrF4
_chemical_formula_sum   'Cr2 F8'
_cell_volume   155.25267740
_cell_formula_units_Z   2
loop_
 _symmetry_equiv_pos_site_id
 _symmetry_equiv_pos_as_xyz
  1  'x, y, z'
loop_
 _atom_site_type_symbol
 _atom_site_label
 _atom_site_symmetry_multiplicity
 _atom_site_fract_x
 _atom_site_fract_y
 _atom_site_fract_z
 _atom_site_occupancy
  Cr  Cr0  1  0.50000000  0.00000000  0.50000000  1
  Cr  Cr1  1  0.00000000  0.50000000  0.50000000  1
  F  F2  1  0.44498700  0.94498700  0.16029700  1
  F  F3  1  0.21531000  0.71531000  0.16029700  1
  F  F4  1  0.55501300  0.05501300  0.83970300  1
  F  F5  1  0.05501300  0.21531000  0.50000000  1
  F  F6  1  0.78469000  0.28469000  0.83970300  1
  F  F7  1  0.28469000  0.44498700  0.50000000  1
  F  F8  1  0.94498700  0.78469000  0.50000000  1
  F  F9  1  0.70790400  0.54302600  0.50000000  1
