# generated using pymatgen
data_TbDyAl4
_symmetry_space_group_name_H-M   'P 1'
_cell_length_a   5.54302158
_cell_length_b   5.54302158
_cell_length_c   5.54302004
_cell_angle_alpha   59.99999080
_cell_angle_beta   59.99999080
_cell_angle_gamma   60.00000000
_symmetry_Int_Tables_number   1
_chemical_formula_structural   TbDyAl4
_chemical_formula_sum   'Tb1 Dy1 Al4'
_cell_volume   120.42718367
_cell_formula_units_Z   1
loop_
 _symmetry_equiv_pos_site_id
 _symmetry_equiv_pos_as_xyz
  1  'x, y, z'
loop_
 _atom_site_type_symbol
 _atom_site_label
 _atom_site_symmetry_multiplicity
 _atom_site_fract_x
 _atom_site_fract_y
 _atom_site_fract_z
 _atom_site_occupancy
  Tb  Tb0  1  0.99999791  0.99999791  0.00000627  1
  Dy  Dy1  1  0.25000706  0.25000706  0.24997881  1
  Al  Al2  1  0.12504710  0.62498244  0.62498802  1
  Al  Al3  1  0.62498244  0.12504710  0.62498802  1
  Al  Al4  1  0.62498304  0.62498304  0.12505087  1
  Al  Al5  1  0.62498244  0.62498244  0.62498802  1
