# generated using pymatgen
data_Lu3Ga8Ir3
_symmetry_space_group_name_H-M   'P 1'
_cell_length_a   8.06236677
_cell_length_b   8.06236677
_cell_length_c   8.06236677
_cell_angle_alpha   150.35729027
_cell_angle_beta   106.07612830
_cell_angle_gamma   81.60244450
_symmetry_Int_Tables_number   1
_chemical_formula_structural   Lu3Ga8Ir3
_chemical_formula_sum   'Lu3 Ga8 Ir3'
_cell_volume   244.07508272
_cell_formula_units_Z   1
loop_
 _symmetry_equiv_pos_site_id
 _symmetry_equiv_pos_as_xyz
  1  'x, y, z'
loop_
 _atom_site_type_symbol
 _atom_site_label
 _atom_site_symmetry_multiplicity
 _atom_site_fract_x
 _atom_site_fract_y
 _atom_site_fract_z
 _atom_site_occupancy
  Lu  Lu0  1  0.50000000  0.50000000  0.00000000  1
  Lu  Lu1  1  0.16545040  0.16545040  0.00000000  1
  Lu  Lu2  1  0.83454960  0.83454960  -0.00000000  1
  Ga  Ga3  1  0.66049247  0.37585760  0.28463487  1
  Ga  Ga4  1  0.33950753  0.62414240  0.71536513  1
  Ga  Ga5  1  0.09122273  0.37585760  0.71536513  1
  Ga  Ga6  1  0.90877727  0.62414240  0.28463487  1
  Ga  Ga7  1  0.54317436  0.17133517  0.37183919  1
  Ga  Ga8  1  0.45682564  0.82866483  0.62816081  1
  Ga  Ga9  1  0.79949598  0.17133517  0.62816081  1
  Ga  Ga10  1  0.20050402  0.82866483  0.37183919  1
  Ir  Ir11  1  0.00000000  0.50000000  0.50000000  1
  Ir  Ir12  1  0.22346831  -0.00000000  0.22346831  1
  Ir  Ir13  1  0.77653169  0.00000000  0.77653169  1
