# generated using pymatgen
data_U8NiS17
_symmetry_space_group_name_H-M   'P 1'
_cell_length_a   7.90012257
_cell_length_b   7.90012257
_cell_length_c   10.44111833
_cell_angle_alpha   80.33312813
_cell_angle_beta   80.33312813
_cell_angle_gamma   64.29893484
_symmetry_Int_Tables_number   1
_chemical_formula_structural   U8NiS17
_chemical_formula_sum   'U8 Ni1 S17'
_cell_volume   575.51765900
_cell_formula_units_Z   1
loop_
 _symmetry_equiv_pos_site_id
 _symmetry_equiv_pos_as_xyz
  1  'x, y, z'
loop_
 _atom_site_type_symbol
 _atom_site_label
 _atom_site_symmetry_multiplicity
 _atom_site_fract_x
 _atom_site_fract_y
 _atom_site_fract_z
 _atom_site_occupancy
  U  U0  1  0.18591096  0.69851860  0.70568164  1
  U  U1  1  0.69851860  0.18591096  0.70568164  1
  U  U2  1  0.81408904  0.30148140  0.29431836  1
  U  U3  1  0.30148140  0.81408904  0.29431836  1
  U  U4  1  0.79503027  0.79503027  0.45421855  1
  U  U5  1  0.20496973  0.20496973  0.54578145  1
  U  U6  1  0.31511595  0.31511595  0.02024110  1
  U  U7  1  0.68488405  0.68488405  0.97975890  1
  Ni  Ni8  1  -0.00000000  -0.00000000  -0.00000000  1
  S  S9  1  0.17569107  0.56879849  0.46631889  1
  S  S10  1  0.56879849  0.17569107  0.46631889  1
  S  S11  1  0.82430893  0.43120151  0.53368111  1
  S  S12  1  0.43120151  0.82430893  0.53368111  1
  S  S13  1  0.05839085  0.67589816  0.97045620  1
  S  S14  1  0.67589816  0.05839085  0.97045620  1
  S  S15  1  0.94160915  0.32410184  0.02954380  1
  S  S16  1  0.32410184  0.94160915  0.02954380  1
  S  S17  1  0.79140283  0.79140283  0.72016166  1
  S  S18  1  0.20859717  0.20859717  0.27983834  1
  S  S19  1  0.94455487  0.94455487  0.22478671  1
  S  S20  1  0.05544513  0.05544513  0.77521329  1
  S  S21  1  0.69739698  0.69739698  0.24574973  1
  S  S22  1  0.30260302  0.30260302  0.75425027  1
  S  S23  1  0.47956912  0.47956912  0.16995133  1
  S  S24  1  0.52043088  0.52043088  0.83004867  1
  S  S25  1  -0.00000000  -0.00000000  0.50000000  1
