# generated using pymatgen
data_Cs2PuO4
_symmetry_space_group_name_H-M   'P 1'
_cell_length_a   8.06023885
_cell_length_b   8.06023885
_cell_length_c   8.06023885
_cell_angle_alpha   148.56228553
_cell_angle_beta   148.56228553
_cell_angle_gamma   45.05600033
_symmetry_Int_Tables_number   1
_chemical_formula_structural   Cs2PuO4
_chemical_formula_sum   'Cs2 Pu1 O4'
_cell_volume   142.00527933
_cell_formula_units_Z   1
loop_
 _symmetry_equiv_pos_site_id
 _symmetry_equiv_pos_as_xyz
  1  'x, y, z'
loop_
 _atom_site_type_symbol
 _atom_site_label
 _atom_site_symmetry_multiplicity
 _atom_site_fract_x
 _atom_site_fract_y
 _atom_site_fract_z
 _atom_site_occupancy
  Cs  Cs0  1  0.34560638  0.34560638  -0.00000000  1
  Cs  Cs1  1  0.65439362  0.65439362  0.00000000  1
  Pu  Pu2  1  -0.00000000  -0.00000000  -0.00000000  1
  O  O3  1  0.12711889  0.12711889  -0.00000000  1
  O  O4  1  0.87288111  0.87288111  0.00000000  1
  O  O5  1  0.50000000  -0.00000000  0.50000000  1
  O  O6  1  -0.00000000  0.50000000  0.50000000  1
