# generated using pymatgen
data_La(BC)2
_symmetry_space_group_name_H-M   'P 1'
_cell_length_a   3.99030645
_cell_length_b   5.39054888
_cell_length_c   5.39054888
_cell_angle_alpha   90.00000000
_cell_angle_beta   90.00000000
_cell_angle_gamma   90.00000000
_symmetry_Int_Tables_number   1
_chemical_formula_structural   La(BC)2
_chemical_formula_sum   'La2 B4 C4'
_cell_volume   115.95039357
_cell_formula_units_Z   2
loop_
 _symmetry_equiv_pos_site_id
 _symmetry_equiv_pos_as_xyz
  1  'x, y, z'
loop_
 _atom_site_type_symbol
 _atom_site_label
 _atom_site_symmetry_multiplicity
 _atom_site_fract_x
 _atom_site_fract_y
 _atom_site_fract_z
 _atom_site_occupancy
  La  La0  1  -0.00000000  0.50000000  0.50000000  1
  La  La1  1  0.00000000  0.00000000  -0.00000000  1
  B  B2  1  0.50000000  0.63758691  0.13758691  1
  B  B3  1  0.50000000  0.86241309  0.63758691  1
  B  B4  1  0.50000000  0.36241309  0.86241309  1
  B  B5  1  0.50000000  0.13758691  0.36241309  1
  C  C6  1  0.50000000  0.66119183  0.83880817  1
  C  C7  1  0.50000000  0.83880817  0.33880817  1
  C  C8  1  0.50000000  0.16119183  0.66119183  1
  C  C9  1  0.50000000  0.33880817  0.16119183  1
