# generated using pymatgen
data_Mn3B4W
_symmetry_space_group_name_H-M   'P 1'
_cell_length_a   2.99771369
_cell_length_b   4.28575319
_cell_length_c   5.65131558
_cell_angle_alpha   89.66410421
_cell_angle_beta   90.00000000
_cell_angle_gamma   90.00000000
_symmetry_Int_Tables_number   1
_chemical_formula_structural   Mn3B4W
_chemical_formula_sum   'Mn3 B4 W1'
_cell_volume   72.60380889
_cell_formula_units_Z   1
loop_
 _symmetry_equiv_pos_site_id
 _symmetry_equiv_pos_as_xyz
  1  'x, y, z'
loop_
 _atom_site_type_symbol
 _atom_site_label
 _atom_site_symmetry_multiplicity
 _atom_site_fract_x
 _atom_site_fract_y
 _atom_site_fract_z
 _atom_site_occupancy
  Mn  Mn0  1  -0.00000000  0.87657011  0.82653320  1
  Mn  Mn1  1  0.50000000  0.37524023  0.67788612  1
  Mn  Mn2  1  0.50000000  0.11857748  0.17311390  1
  B  B3  1  -0.00000000  0.11844215  0.47317508  1
  B  B4  1  -0.00000000  0.38150437  0.95960170  1
  B  B5  1  0.50000000  0.90300833  0.54235525  1
  B  B6  1  0.50000000  0.60257877  0.02257691  1
  W  W7  1  -0.00000000  0.62407856  0.32475883  1
