# generated using pymatgen
data_Sb(MoS)2
_symmetry_space_group_name_H-M   'P 1'
_cell_length_a   3.20347563
_cell_length_b   6.55778366
_cell_length_c   9.48259106
_cell_angle_alpha   105.60859122
_cell_angle_beta   90.00000000
_cell_angle_gamma   90.00000000
_symmetry_Int_Tables_number   1
_chemical_formula_structural   Sb(MoS)2
_chemical_formula_sum   'Sb2 Mo4 S4'
_cell_volume   191.86110421
_cell_formula_units_Z   2
loop_
 _symmetry_equiv_pos_site_id
 _symmetry_equiv_pos_as_xyz
  1  'x, y, z'
loop_
 _atom_site_type_symbol
 _atom_site_label
 _atom_site_symmetry_multiplicity
 _atom_site_fract_x
 _atom_site_fract_y
 _atom_site_fract_z
 _atom_site_occupancy
  Sb  Sb0  1  0.75000000  0.00157365  0.66118567  1
  Sb  Sb1  1  0.25000000  0.99842635  0.33881433  1
  Mo  Mo2  1  0.75000000  0.10383202  0.11369614  1
  Mo  Mo3  1  0.75000000  0.33927436  0.52033101  1
  Mo  Mo4  1  0.25000000  0.89616798  0.88630386  1
  Mo  Mo5  1  0.25000000  0.66072564  0.47966899  1
  S  S6  1  0.25000000  0.26334746  0.99371741  1
  S  S7  1  0.25000000  0.52594004  0.68868318  1
  S  S8  1  0.75000000  0.73665254  0.00628259  1
  S  S9  1  0.75000000  0.47405996  0.31131682  1
