# generated using pymatgen
data_SmGaPd
_symmetry_space_group_name_H-M   'P 1'
_cell_length_a   4.52739217
_cell_length_b   7.11463064
_cell_length_c   7.57593331
_cell_angle_alpha   90.00000000
_cell_angle_beta   90.00000000
_cell_angle_gamma   90.00000000
_symmetry_Int_Tables_number   1
_chemical_formula_structural   SmGaPd
_chemical_formula_sum   'Sm4 Ga4 Pd4'
_cell_volume   244.02628971
_cell_formula_units_Z   4
loop_
 _symmetry_equiv_pos_site_id
 _symmetry_equiv_pos_as_xyz
  1  'x, y, z'
loop_
 _atom_site_type_symbol
 _atom_site_label
 _atom_site_symmetry_multiplicity
 _atom_site_fract_x
 _atom_site_fract_y
 _atom_site_fract_z
 _atom_site_occupancy
  Sm  Sm0  1  0.25000000  0.01982524  0.30170447  1
  Sm  Sm1  1  0.25000000  0.51982524  0.19829553  1
  Sm  Sm2  1  0.75000000  0.98017511  0.69829352  1
  Sm  Sm3  1  0.75000000  0.48017511  0.80170648  1
  Ga  Ga4  1  0.25000000  0.67583187  0.57887042  1
  Ga  Ga5  1  0.25000000  0.17583187  0.92112958  1
  Ga  Ga6  1  0.75000000  0.32416828  0.42112824  1
  Ga  Ga7  1  0.75000000  0.82416828  0.07887176  1
  Pd  Pd8  1  0.25000000  0.28951660  0.59273527  1
  Pd  Pd9  1  0.25000000  0.78951660  0.90726473  1
  Pd  Pd10  1  0.75000000  0.71048191  0.40726589  1
  Pd  Pd11  1  0.75000000  0.21048191  0.09273411  1
