# generated using pymatgen
data_La2SbI2
_symmetry_space_group_name_H-M   'P 1'
_cell_length_a   4.57974226
_cell_length_b   4.57974226
_cell_length_c   11.23608895
_cell_angle_alpha   90.00000000
_cell_angle_beta   90.00000000
_cell_angle_gamma   120.00001940
_symmetry_Int_Tables_number   1
_chemical_formula_structural   La2SbI2
_chemical_formula_sum   'La2 Sb1 I2'
_cell_volume   204.09285016
_cell_formula_units_Z   1
loop_
 _symmetry_equiv_pos_site_id
 _symmetry_equiv_pos_as_xyz
  1  'x, y, z'
loop_
 _atom_site_type_symbol
 _atom_site_label
 _atom_site_symmetry_multiplicity
 _atom_site_fract_x
 _atom_site_fract_y
 _atom_site_fract_z
 _atom_site_occupancy
  La  La0  1  0.33333300  0.66666700  0.16022702  1
  La  La1  1  0.66666700  0.33333300  0.83977298  1
  Sb  Sb2  1  -0.00000000  0.00000000  -0.00000000  1
  I  I3  1  0.33333300  0.66666700  0.66066900  1
  I  I4  1  0.66666700  0.33333300  0.33933100  1
