# generated using pymatgen
data_Tb5Ge4
_symmetry_space_group_name_H-M   'P 1'
_cell_length_a   7.67628329
_cell_length_b   7.73886030
_cell_length_c   14.73108896
_cell_angle_alpha   90.00000000
_cell_angle_beta   90.00000000
_cell_angle_gamma   90.00000000
_symmetry_Int_Tables_number   1
_chemical_formula_structural   Tb5Ge4
_chemical_formula_sum   'Tb20 Ge16'
_cell_volume   875.11041580
_cell_formula_units_Z   4
loop_
 _symmetry_equiv_pos_site_id
 _symmetry_equiv_pos_as_xyz
  1  'x, y, z'
loop_
 _atom_site_type_symbol
 _atom_site_label
 _atom_site_symmetry_multiplicity
 _atom_site_fract_x
 _atom_site_fract_y
 _atom_site_fract_z
 _atom_site_occupancy
  Tb  Tb0  1  0.72200979  0.99677366  0.75000000  1
  Tb  Tb1  1  0.22200979  0.50322634  0.75000000  1
  Tb  Tb2  1  0.77799021  0.49677366  0.25000000  1
  Tb  Tb3  1  0.27799021  0.00322634  0.25000000  1
  Tb  Tb4  1  0.03785427  0.17449371  0.60372833  1
  Tb  Tb5  1  0.53785427  0.32550629  0.89627167  1
  Tb  Tb6  1  0.46214573  0.67449371  0.39627167  1
  Tb  Tb7  1  0.96214573  0.82550629  0.10372833  1
  Tb  Tb8  1  0.96214573  0.82550629  0.39627167  1
  Tb  Tb9  1  0.46214573  0.67449371  0.10372833  1
  Tb  Tb10  1  0.53785427  0.32550629  0.60372833  1
  Tb  Tb11  1  0.03785427  0.17449371  0.89627167  1
  Tb  Tb12  1  0.88702318  0.65950828  0.61474710  1
  Tb  Tb13  1  0.38702318  0.84049172  0.88525290  1
  Tb  Tb14  1  0.61297682  0.15950828  0.38525290  1
  Tb  Tb15  1  0.11297682  0.34049172  0.11474710  1
  Tb  Tb16  1  0.11297682  0.34049172  0.38525290  1
  Tb  Tb17  1  0.61297682  0.15950828  0.11474710  1
  Tb  Tb18  1  0.38702318  0.84049172  0.61474710  1
  Tb  Tb19  1  0.88702318  0.65950828  0.88525290  1
  Ge  Ge20  1  0.15886628  0.63540485  0.25000000  1
  Ge  Ge21  1  0.65886628  0.86459515  0.25000000  1
  Ge  Ge22  1  0.34113372  0.13540485  0.75000000  1
  Ge  Ge23  1  0.84113372  0.36459515  0.75000000  1
  Ge  Ge24  1  0.90676617  0.11663930  0.25000000  1
  Ge  Ge25  1  0.40676617  0.38336070  0.25000000  1
  Ge  Ge26  1  0.59323383  0.61663930  0.75000000  1
  Ge  Ge27  1  0.09323383  0.88336070  0.75000000  1
  Ge  Ge28  1  0.77198393  0.47236597  0.45441590  1
  Ge  Ge29  1  0.27198393  0.02763403  0.04558410  1
  Ge  Ge30  1  0.72801607  0.97236597  0.54558410  1
  Ge  Ge31  1  0.22801607  0.52763403  0.95441590  1
  Ge  Ge32  1  0.22801607  0.52763403  0.54558410  1
  Ge  Ge33  1  0.72801607  0.97236597  0.95441590  1
  Ge  Ge34  1  0.27198393  0.02763403  0.45441590  1
  Ge  Ge35  1  0.77198393  0.47236597  0.04558410  1
