# generated using pymatgen
data_Sm3Rh
_symmetry_space_group_name_H-M   'P 1'
_cell_length_a   6.42106423
_cell_length_b   7.23043228
_cell_length_c   9.83427903
_cell_angle_alpha   90.00000000
_cell_angle_beta   90.00000000
_cell_angle_gamma   90.00000000
_symmetry_Int_Tables_number   1
_chemical_formula_structural   Sm3Rh
_chemical_formula_sum   'Sm12 Rh4'
_cell_volume   456.57676172
_cell_formula_units_Z   4
loop_
 _symmetry_equiv_pos_site_id
 _symmetry_equiv_pos_as_xyz
  1  'x, y, z'
loop_
 _atom_site_type_symbol
 _atom_site_label
 _atom_site_symmetry_multiplicity
 _atom_site_fract_x
 _atom_site_fract_y
 _atom_site_fract_z
 _atom_site_occupancy
  Sm  Sm0  1  0.32647992  0.67175343  0.06622943  1
  Sm  Sm1  1  0.17352008  0.17175443  0.43377057  1
  Sm  Sm2  1  0.67352008  0.32824557  0.56622943  1
  Sm  Sm3  1  0.82647992  0.82824657  0.93377057  1
  Sm  Sm4  1  0.67352008  0.32824557  0.93377057  1
  Sm  Sm5  1  0.82647992  0.82824657  0.56622943  1
  Sm  Sm6  1  0.32647992  0.67175343  0.43377057  1
  Sm  Sm7  1  0.17352008  0.17175443  0.06622943  1
  Sm  Sm8  1  0.85628133  0.53827511  0.25000000  1
  Sm  Sm9  1  0.64371867  0.03827511  0.25000000  1
  Sm  Sm10  1  0.14371867  0.46172489  0.75000000  1
  Sm  Sm11  1  0.35628133  0.96172489  0.75000000  1
  Rh  Rh12  1  0.06316521  0.87833653  0.25000000  1
  Rh  Rh13  1  0.43683479  0.37833653  0.25000000  1
  Rh  Rh14  1  0.93683479  0.12166347  0.75000000  1
  Rh  Rh15  1  0.56316521  0.62166347  0.75000000  1
