# generated using pymatgen
data_Sc(TiGa2)2
_symmetry_space_group_name_H-M   'P 1'
_cell_length_a   5.38260290
_cell_length_b   5.38260290
_cell_length_c   5.38260290
_cell_angle_alpha   104.61305180
_cell_angle_beta   104.61305180
_cell_angle_gamma   119.69747675
_symmetry_Int_Tables_number   1
_chemical_formula_structural   Sc(TiGa2)2
_chemical_formula_sum   'Sc1 Ti2 Ga4'
_cell_volume   117.13593999
_cell_formula_units_Z   1
loop_
 _symmetry_equiv_pos_site_id
 _symmetry_equiv_pos_as_xyz
  1  'x, y, z'
loop_
 _atom_site_type_symbol
 _atom_site_label
 _atom_site_symmetry_multiplicity
 _atom_site_fract_x
 _atom_site_fract_y
 _atom_site_fract_z
 _atom_site_occupancy
  Sc  Sc0  1  0.00000000  -0.00000000  0.00000000  1
  Ti  Ti1  1  0.75000000  0.25000000  0.50000000  1
  Ti  Ti2  1  0.25000000  0.75000000  0.50000000  1
  Ga  Ga3  1  0.69909129  0.69909129  0.39818358  1
  Ga  Ga4  1  0.30090871  0.30090871  0.60181642  1
  Ga  Ga5  1  0.30090871  0.69909129  0.00000000  1
  Ga  Ga6  1  0.69909129  0.30090871  -0.00000000  1
