# generated using pymatgen
data_ErOF
_symmetry_space_group_name_H-M   'P 1'
_cell_length_a   6.58029948
_cell_length_b   6.58029948
_cell_length_c   6.58029930
_cell_angle_alpha   33.05456630
_cell_angle_beta   33.05456630
_cell_angle_gamma   33.05455555
_symmetry_Int_Tables_number   1
_chemical_formula_structural   ErOF
_chemical_formula_sum   'Er2 O2 F2'
_cell_volume   75.44200365
_cell_formula_units_Z   2
loop_
 _symmetry_equiv_pos_site_id
 _symmetry_equiv_pos_as_xyz
  1  'x, y, z'
loop_
 _atom_site_type_symbol
 _atom_site_label
 _atom_site_symmetry_multiplicity
 _atom_site_fract_x
 _atom_site_fract_y
 _atom_site_fract_z
 _atom_site_occupancy
  Er  Er0  1  0.25864780  0.25864780  0.25864780  1
  Er  Er1  1  0.74135220  0.74135220  0.74135220  1
  O  O2  1  0.37874142  0.37874142  0.37874142  1
  O  O3  1  0.62125858  0.62125858  0.62125858  1
  F  F4  1  0.13054701  0.13054701  0.13054701  1
  F  F5  1  0.86945299  0.86945299  0.86945299  1
