# generated using pymatgen
data_Gd2TeO6
_symmetry_space_group_name_H-M   'P 1'
_cell_length_a   5.33143659
_cell_length_b   9.17555493
_cell_length_c   10.04225318
_cell_angle_alpha   90.00000000
_cell_angle_beta   90.00000000
_cell_angle_gamma   90.00000000
_symmetry_Int_Tables_number   1
_chemical_formula_structural   Gd2TeO6
_chemical_formula_sum   'Gd8 Te4 O24'
_cell_volume   491.25587151
_cell_formula_units_Z   4
loop_
 _symmetry_equiv_pos_site_id
 _symmetry_equiv_pos_as_xyz
  1  'x, y, z'
loop_
 _atom_site_type_symbol
 _atom_site_label
 _atom_site_symmetry_multiplicity
 _atom_site_fract_x
 _atom_site_fract_y
 _atom_site_fract_z
 _atom_site_occupancy
  Gd  Gd0  1  0.47789177  0.89592594  0.03872957  1
  Gd  Gd1  1  0.97789177  0.60407406  0.96127043  1
  Gd  Gd2  1  0.52210823  0.39592594  0.46127043  1
  Gd  Gd3  1  0.02210823  0.10407406  0.53872957  1
  Gd  Gd4  1  0.46382709  0.78272203  0.63601854  1
  Gd  Gd5  1  0.96382709  0.71727797  0.36398146  1
  Gd  Gd6  1  0.53617291  0.28272203  0.86398146  1
  Gd  Gd7  1  0.03617291  0.21727797  0.13601854  1
  Te  Te8  1  0.96031250  0.99532804  0.85344458  1
  Te  Te9  1  0.46031250  0.50467196  0.14655542  1
  Te  Te10  1  0.03968750  0.49532804  0.64655542  1
  Te  Te11  1  0.53968750  0.00467196  0.35344458  1
  O  O12  1  0.24400658  0.58524464  0.50725440  1
  O  O13  1  0.74400658  0.91475536  0.49274560  1
  O  O14  1  0.75599342  0.08524464  0.99274560  1
  O  O15  1  0.25599342  0.41475536  0.00725440  1
  O  O16  1  0.27259893  0.88704771  0.43091578  1
  O  O17  1  0.77259893  0.61295229  0.56908422  1
  O  O18  1  0.72740107  0.38704771  0.06908422  1
  O  O19  1  0.22740107  0.11295229  0.93091578  1
  O  O20  1  0.18678067  0.63884942  0.17834952  1
  O  O21  1  0.68678067  0.86115058  0.82165048  1
  O  O22  1  0.81321933  0.13884942  0.32165048  1
  O  O23  1  0.31321933  0.36115058  0.67834952  1
  O  O24  1  0.31600958  0.36095862  0.25993996  1
  O  O25  1  0.81600958  0.13904138  0.74006004  1
  O  O26  1  0.68399042  0.86095862  0.24006004  1
  O  O27  1  0.18399042  0.63904138  0.75993996  1
  O  O28  1  0.33328328  0.05245129  0.20576534  1
  O  O29  1  0.83328328  0.44754871  0.79423466  1
  O  O30  1  0.66671672  0.55245129  0.29423466  1
  O  O31  1  0.16671672  0.94754871  0.70576534  1
  O  O32  1  0.42027728  0.15241752  0.47268402  1
  O  O33  1  0.92027728  0.34758248  0.52731598  1
  O  O34  1  0.57972272  0.65241752  0.02731598  1
  O  O35  1  0.07972272  0.84758248  0.97268402  1
