# generated using pymatgen
data_ScZnPd
_symmetry_space_group_name_H-M   'P 1'
_cell_length_a   5.03891994
_cell_length_b   5.03891994
_cell_length_c   5.25138069
_cell_angle_alpha   90.00000000
_cell_angle_beta   90.00000000
_cell_angle_gamma   129.57347063
_symmetry_Int_Tables_number   1
_chemical_formula_structural   ScZnPd
_chemical_formula_sum   'Sc2 Zn2 Pd2'
_cell_volume   102.77673173
_cell_formula_units_Z   2
loop_
 _symmetry_equiv_pos_site_id
 _symmetry_equiv_pos_as_xyz
  1  'x, y, z'
loop_
 _atom_site_type_symbol
 _atom_site_label
 _atom_site_symmetry_multiplicity
 _atom_site_fract_x
 _atom_site_fract_y
 _atom_site_fract_z
 _atom_site_occupancy
  Sc  Sc0  1  0.70683443  0.29316557  0.25000000  1
  Sc  Sc1  1  0.29316557  0.70683443  0.75000000  1
  Zn  Zn2  1  0.00000000  -0.00000000  0.50000000  1
  Zn  Zn3  1  0.00000000  -0.00000000  -0.00000000  1
  Pd  Pd4  1  0.40354371  0.59645629  0.25000000  1
  Pd  Pd5  1  0.59645629  0.40354371  0.75000000  1
