# generated using pymatgen
data_SiO2
_symmetry_space_group_name_H-M   'P 1'
_cell_length_a   7.65966090
_cell_length_b   11.54704706
_cell_length_c   11.54704720
_cell_angle_alpha   71.71822606
_cell_angle_beta   80.61689653
_cell_angle_gamma   80.61689557
_symmetry_Int_Tables_number   1
_chemical_formula_structural   SiO2
_chemical_formula_sum   'Si16 O32'
_cell_volume   949.92205592
_cell_formula_units_Z   16
loop_
 _symmetry_equiv_pos_site_id
 _symmetry_equiv_pos_as_xyz
  1  'x, y, z'
loop_
 _atom_site_type_symbol
 _atom_site_label
 _atom_site_symmetry_multiplicity
 _atom_site_fract_x
 _atom_site_fract_y
 _atom_site_fract_z
 _atom_site_occupancy
  Si  Si0  1  0.22833758  0.36487008  0.95767816  1
  Si  Si1  1  0.77166242  0.04232184  0.63512992  1
  Si  Si2  1  0.77166242  0.63512992  0.04232184  1
  Si  Si3  1  0.22833758  0.95767816  0.36487008  1
  Si  Si4  1  0.12364469  0.63862655  0.86644639  1
  Si  Si5  1  0.87635531  0.13355361  0.36137345  1
  Si  Si6  1  0.87635531  0.36137345  0.13355361  1
  Si  Si7  1  0.12364469  0.86644639  0.63862655  1
  Si  Si8  1  0.79968351  0.10062988  0.87425772  1
  Si  Si9  1  0.20031649  0.12574228  0.89937012  1
  Si  Si10  1  0.20031649  0.89937012  0.12574228  1
  Si  Si11  1  0.79968351  0.87425772  0.10062988  1
  Si  Si12  1  0.59677989  0.26301113  0.03151943  1
  Si  Si13  1  0.40322011  0.96848057  0.73698887  1
  Si  Si14  1  0.40322011  0.73698887  0.96848057  1
  Si  Si15  1  0.59677989  0.03151943  0.26301113  1
  O  O16  1  0.75386561  0.33252459  0.04668608  1
  O  O17  1  0.24613439  0.95331392  0.66747541  1
  O  O18  1  0.24613439  0.66747541  0.95331392  1
  O  O19  1  0.75386561  0.04668608  0.33252459  1
  O  O20  1  0.76735596  0.11106454  0.73741523  1
  O  O21  1  0.23264404  0.26258477  0.88893546  1
  O  O22  1  0.23264404  0.88893546  0.26258477  1
  O  O23  1  0.76735596  0.73741523  0.11106454  1
  O  O24  1  0.91735579  0.65895370  0.92175271  1
  O  O25  1  0.08264421  0.07824729  0.34104630  1
  O  O26  1  0.08264421  0.34104630  0.07824729  1
  O  O27  1  0.91735579  0.92175271  0.65895370  1
  O  O28  1  0.17776817  0.49856261  0.86366536  1
  O  O29  1  0.82223183  0.13633464  0.50143739  1
  O  O30  1  0.82223183  0.50143739  0.13633464  1
  O  O31  1  0.17776817  0.86366536  0.49856261  1
  O  O32  1  0.54852282  0.15811968  0.15811968  1
  O  O33  1  0.45147718  0.84188032  0.84188032  1
  O  O34  1  -0.00000000  0.87485456  0.12514544  1
  O  O35  1  0.00000000  0.12514544  0.87485456  1
  O  O36  1  0.42182948  0.99885715  0.35891287  1
  O  O37  1  0.57817052  0.64108713  0.00114285  1
  O  O38  1  0.57817052  0.00114285  0.64108713  1
  O  O39  1  0.42182948  0.35891287  0.99885715  1
  O  O40  1  0.66169092  0.92137532  0.20194909  1
  O  O41  1  0.33830908  0.79805091  0.07862468  1
  O  O42  1  0.33830908  0.07862468  0.79805091  1
  O  O43  1  0.66169092  0.20194909  0.92137532  1
  O  O44  1  0.76872010  0.96397244  0.96397244  1
  O  O45  1  0.23127990  0.03602756  0.03602756  1
  O  O46  1  0.15248474  0.72834207  0.72834207  1
  O  O47  1  0.84751526  0.27165793  0.27165793  1
