# generated using pymatgen
data_Dy(AlC)3
_symmetry_space_group_name_H-M   'P 1'
_cell_length_a   3.41600711
_cell_length_b   3.41600711
_cell_length_c   17.25681631
_cell_angle_alpha   90.00000000
_cell_angle_beta   90.00000000
_cell_angle_gamma   120.00000020
_symmetry_Int_Tables_number   1
_chemical_formula_structural   Dy(AlC)3
_chemical_formula_sum   'Dy2 Al6 C6'
_cell_volume   174.39291583
_cell_formula_units_Z   2
loop_
 _symmetry_equiv_pos_site_id
 _symmetry_equiv_pos_as_xyz
  1  'x, y, z'
loop_
 _atom_site_type_symbol
 _atom_site_label
 _atom_site_symmetry_multiplicity
 _atom_site_fract_x
 _atom_site_fract_y
 _atom_site_fract_z
 _atom_site_occupancy
  Dy  Dy0  1  0.00000000  0.00000000  0.50000000  1
  Dy  Dy1  1  0.00000000  0.00000000  0.00000000  1
  Al  Al2  1  0.33333300  0.66666700  0.36587595  1
  Al  Al3  1  0.66666700  0.33333300  0.63412405  1
  Al  Al4  1  0.66666700  0.33333300  0.86587595  1
  Al  Al5  1  0.33333300  0.66666700  0.13412405  1
  Al  Al6  1  0.33333300  0.66666700  0.75000000  1
  Al  Al7  1  0.66666700  0.33333300  0.25000000  1
  C  C8  1  0.33333300  0.66666700  0.90664042  1
  C  C9  1  0.66666700  0.33333300  0.09335958  1
  C  C10  1  0.66666700  0.33333300  0.40664042  1
  C  C11  1  0.33333300  0.66666700  0.59335958  1
  C  C12  1  0.33333300  0.66666700  0.25000000  1
  C  C13  1  0.66666700  0.33333300  0.75000000  1
