# generated using pymatgen
data_Si2NiPd
_symmetry_space_group_name_H-M   'P 1'
_cell_length_a   3.37305789
_cell_length_b   5.37998642
_cell_length_c   5.87866812
_cell_angle_alpha   90.00000000
_cell_angle_beta   90.00000000
_cell_angle_gamma   90.00000000
_symmetry_Int_Tables_number   1
_chemical_formula_structural   Si2NiPd
_chemical_formula_sum   'Si4 Ni2 Pd2'
_cell_volume   106.68022354
_cell_formula_units_Z   2
loop_
 _symmetry_equiv_pos_site_id
 _symmetry_equiv_pos_as_xyz
  1  'x, y, z'
loop_
 _atom_site_type_symbol
 _atom_site_label
 _atom_site_symmetry_multiplicity
 _atom_site_fract_x
 _atom_site_fract_y
 _atom_site_fract_z
 _atom_site_occupancy
  Si  Si0  1  0.50000000  0.32456242  0.69504972  1
  Si  Si1  1  0.50000000  0.82456242  0.30495028  1
  Si  Si2  1  0.00000000  0.67979003  0.84912893  1
  Si  Si3  1  0.00000000  0.17979003  0.15087107  1
  Ni  Ni4  1  0.50000000  0.49374232  0.05488014  1
  Ni  Ni5  1  0.50000000  0.99374232  0.94511986  1
  Pd  Pd6  1  0.00000000  0.50190423  0.43389779  1
  Pd  Pd7  1  0.00000000  0.00190423  0.56610221  1
