# generated using pymatgen
data_Y(PO3)3
_symmetry_space_group_name_H-M   'P 1'
_cell_length_a   7.85510883
_cell_length_b   7.85510883
_cell_length_c   10.04119909
_cell_angle_alpha   56.61780023
_cell_angle_beta   56.61780023
_cell_angle_gamma   50.75445679
_symmetry_Int_Tables_number   1
_chemical_formula_structural   Y(PO3)3
_chemical_formula_sum   'Y2 P6 O18'
_cell_volume   380.58489493
_cell_formula_units_Z   2
loop_
 _symmetry_equiv_pos_site_id
 _symmetry_equiv_pos_as_xyz
  1  'x, y, z'
loop_
 _atom_site_type_symbol
 _atom_site_label
 _atom_site_symmetry_multiplicity
 _atom_site_fract_x
 _atom_site_fract_y
 _atom_site_fract_z
 _atom_site_occupancy
  Y  Y0  1  0.68118684  0.21474164  0.25396258  1
  Y  Y1  1  0.21474164  0.68118684  0.75396258  1
  P  P2  1  0.39950128  0.18980489  0.09124307  1
  P  P3  1  0.18980489  0.39950128  0.59124307  1
  P  P4  1  0.62362979  0.78697540  0.98018709  1
  P  P5  1  0.78697540  0.62362979  0.48018709  1
  P  P6  1  0.18777729  0.01129290  0.91944662  1
  P  P7  1  0.01129290  0.18777729  0.41944662  1
  O  O8  1  0.57835436  0.95138648  0.05363424  1
  O  O9  1  0.95138648  0.57835436  0.55363424  1
  O  O10  1  0.44535394  0.94874344  0.87732412  1
  O  O11  1  0.94874344  0.44535394  0.37732412  1
  O  O12  1  0.10726597  0.24639074  0.77538231  1
  O  O13  1  0.24639074  0.10726597  0.27538231  1
  O  O14  1  0.52732809  0.26542183  0.09565348  1
  O  O15  1  0.26542183  0.52732809  0.59565348  1
  O  O16  1  0.26142152  0.35523507  0.97314811  1
  O  O17  1  0.35523507  0.26142152  0.47314811  1
  O  O18  1  0.57358147  0.59604763  0.12176135  1
  O  O19  1  0.59604763  0.57358147  0.62176135  1
  O  O20  1  0.85787882  0.72665494  0.85645885  1
  O  O21  1  0.72665494  0.85787882  0.35645885  1
  O  O22  1  0.04024239  0.06267069  0.08117215  1
  O  O23  1  0.06267069  0.04024239  0.58117215  1
  O  O24  1  0.19478571  0.83412388  0.89812704  1
  O  O25  1  0.83412388  0.19478571  0.39812704  1
