# generated using pymatgen
data_Mn(AlTe2)2
_symmetry_space_group_name_H-M   'P 1'
_cell_length_a   5.95763115
_cell_length_b   5.95760539
_cell_length_c   7.58223187
_cell_angle_alpha   113.14596454
_cell_angle_beta   113.14537633
_cell_angle_gamma   89.97301501
_symmetry_Int_Tables_number   1
_chemical_formula_structural   Mn(AlTe2)2
_chemical_formula_sum   'Mn1 Al2 Te4'
_cell_volume   223.73012808
_cell_formula_units_Z   1
loop_
 _symmetry_equiv_pos_site_id
 _symmetry_equiv_pos_as_xyz
  1  'x, y, z'
loop_
 _atom_site_type_symbol
 _atom_site_label
 _atom_site_symmetry_multiplicity
 _atom_site_fract_x
 _atom_site_fract_y
 _atom_site_fract_z
 _atom_site_occupancy
  Mn  Mn0  1  0.00015059  0.00014959  0.00031238  1
  Al  Al1  1  0.24999452  0.75009621  0.49998488  1
  Al  Al2  1  0.75009621  0.24999452  0.49998488  1
  Te  Te3  1  0.39020308  0.39020408  0.24679016  1
  Te  Te4  1  0.85626713  0.85626713  0.24655671  1
  Te  Te5  1  0.14336732  0.60992114  0.75318550  1
  Te  Te6  1  0.60992114  0.14336732  0.75318550  1
