# generated using pymatgen
data_EuAsPd
_symmetry_space_group_name_H-M   'P 1'
_cell_length_a   4.28963188
_cell_length_b   4.28963188
_cell_length_c   8.42992557
_cell_angle_alpha   90.00000000
_cell_angle_beta   90.00000000
_cell_angle_gamma   119.99999160
_symmetry_Int_Tables_number   1
_chemical_formula_structural   EuAsPd
_chemical_formula_sum   'Eu2 As2 Pd2'
_cell_volume   134.33663215
_cell_formula_units_Z   2
loop_
 _symmetry_equiv_pos_site_id
 _symmetry_equiv_pos_as_xyz
  1  'x, y, z'
loop_
 _atom_site_type_symbol
 _atom_site_label
 _atom_site_symmetry_multiplicity
 _atom_site_fract_x
 _atom_site_fract_y
 _atom_site_fract_z
 _atom_site_occupancy
  Eu  Eu0  1  0.00000000  0.00000000  0.50000000  1
  Eu  Eu1  1  0.00000000  0.00000000  -0.00000000  1
  As  As2  1  0.66666700  0.33333300  0.75013746  1
  As  As3  1  0.33333300  0.66666700  0.24986254  1
  Pd  Pd4  1  0.66666700  0.33333300  0.25013863  1
  Pd  Pd5  1  0.33333300  0.66666700  0.74986137  1
