# generated using pymatgen
data_ErSnPd
_symmetry_space_group_name_H-M   'P 1'
_cell_length_a   7.07310999
_cell_length_b   4.55945885
_cell_length_c   7.82508401
_cell_angle_alpha   90.00000000
_cell_angle_beta   90.00000000
_cell_angle_gamma   90.00000000
_symmetry_Int_Tables_number   1
_chemical_formula_structural   ErSnPd
_chemical_formula_sum   'Er4 Sn4 Pd4'
_cell_volume   252.35546887
_cell_formula_units_Z   4
loop_
 _symmetry_equiv_pos_site_id
 _symmetry_equiv_pos_as_xyz
  1  'x, y, z'
loop_
 _atom_site_type_symbol
 _atom_site_label
 _atom_site_symmetry_multiplicity
 _atom_site_fract_x
 _atom_site_fract_y
 _atom_site_fract_z
 _atom_site_occupancy
  Er  Er0  1  0.50879913  0.25000000  0.79222330  1
  Er  Er1  1  0.00879308  0.25000000  0.70777677  1
  Er  Er2  1  0.49120692  0.75000000  0.20777677  1
  Er  Er3  1  0.99120087  0.75000000  0.29222330  1
  Sn  Sn4  1  0.69627274  0.25000000  0.41277144  1
  Sn  Sn5  1  0.19626916  0.25000000  0.08722806  1
  Sn  Sn6  1  0.30373084  0.75000000  0.58722806  1
  Sn  Sn7  1  0.80372726  0.75000000  0.91277144  1
  Pd  Pd8  1  0.79257888  0.25000000  0.08353661  1
  Pd  Pd9  1  0.29256782  0.25000000  0.41646382  1
  Pd  Pd10  1  0.20743218  0.75000000  0.91646382  1
  Pd  Pd11  1  0.70742112  0.75000000  0.58353661  1
