# generated using pymatgen
data_KSrPO4
_symmetry_space_group_name_H-M   'P 1'
_cell_length_a   5.54559488
_cell_length_b   7.34229123
_cell_length_c   9.62658206
_cell_angle_alpha   90.00000000
_cell_angle_beta   90.00000000
_cell_angle_gamma   90.00000000
_symmetry_Int_Tables_number   1
_chemical_formula_structural   KSrPO4
_chemical_formula_sum   'K4 Sr4 P4 O16'
_cell_volume   391.96912911
_cell_formula_units_Z   4
loop_
 _symmetry_equiv_pos_site_id
 _symmetry_equiv_pos_as_xyz
  1  'x, y, z'
loop_
 _atom_site_type_symbol
 _atom_site_label
 _atom_site_symmetry_multiplicity
 _atom_site_fract_x
 _atom_site_fract_y
 _atom_site_fract_z
 _atom_site_occupancy
  K  K0  1  0.25000000  0.65639781  0.08440252  1
  K  K1  1  0.75000000  0.84360219  0.58440252  1
  K  K2  1  0.75000000  0.34360219  0.91559748  1
  K  K3  1  0.25000000  0.15639781  0.41559748  1
  Sr  Sr4  1  0.75000000  0.50346144  0.30369503  1
  Sr  Sr5  1  0.75000000  0.00346144  0.19630497  1
  Sr  Sr6  1  0.25000000  -0.00346144  0.80369503  1
  Sr  Sr7  1  0.25000000  0.49653856  0.69630497  1
  P  P8  1  0.25000000  0.22803667  0.08320860  1
  P  P9  1  0.75000000  0.77196333  0.91679140  1
  P  P10  1  0.25000000  0.72803667  0.41679140  1
  P  P11  1  0.75000000  0.27196333  0.58320860  1
  O  O12  1  0.25000000  0.51877180  0.42314273  1
  O  O13  1  0.75000000  0.48122820  0.57685727  1
  O  O14  1  0.25000000  0.01877180  0.07685727  1
  O  O15  1  0.75000000  0.98122820  0.92314273  1
  O  O16  1  0.52190550  0.70711922  0.83966120  1
  O  O17  1  0.02190550  0.29288078  0.16033880  1
  O  O18  1  0.97809450  0.20711922  0.66033880  1
  O  O19  1  0.47809450  0.79288078  0.33966120  1
  O  O20  1  0.47809450  0.29288078  0.16033880  1
  O  O21  1  0.97809450  0.70711922  0.83966120  1
  O  O22  1  0.02190550  0.79288078  0.33966120  1
  O  O23  1  0.52190550  0.20711922  0.66033880  1
  O  O24  1  0.75000000  0.19371067  0.43380800  1
  O  O25  1  0.25000000  0.80628933  0.56619200  1
  O  O26  1  0.75000000  0.69371067  0.06619200  1
  O  O27  1  0.25000000  0.30628933  0.93380800  1
