# generated using pymatgen
data_CaSnPt
_symmetry_space_group_name_H-M   'P 1'
_cell_length_a   4.62387607
_cell_length_b   7.37953147
_cell_length_c   7.90536517
_cell_angle_alpha   90.00431855
_cell_angle_beta   90.00000000
_cell_angle_gamma   90.00000000
_symmetry_Int_Tables_number   1
_chemical_formula_structural   CaSnPt
_chemical_formula_sum   'Ca4 Sn4 Pt4'
_cell_volume   269.74717733
_cell_formula_units_Z   4
loop_
 _symmetry_equiv_pos_site_id
 _symmetry_equiv_pos_as_xyz
  1  'x, y, z'
loop_
 _atom_site_type_symbol
 _atom_site_label
 _atom_site_symmetry_multiplicity
 _atom_site_fract_x
 _atom_site_fract_y
 _atom_site_fract_z
 _atom_site_occupancy
  Ca  Ca0  1  0.25000000  0.98205656  0.31200204  1
  Ca  Ca1  1  0.25000000  0.48207829  0.18796567  1
  Ca  Ca2  1  0.75000000  0.01794894  0.68799880  1
  Ca  Ca3  1  0.75000000  0.51792196  0.81203192  1
  Sn  Sn4  1  0.25000000  0.32989543  0.57745812  1
  Sn  Sn5  1  0.25000000  0.82991760  0.92256973  1
  Sn  Sn6  1  0.75000000  0.67010987  0.42254874  1
  Sn  Sn7  1  0.75000000  0.17008568  0.07742792  1
  Pt  Pt8  1  0.25000000  0.20680307  0.89897008  1
  Pt  Pt9  1  0.25000000  0.70681737  0.60103955  1
  Pt  Pt10  1  0.75000000  0.79319593  0.10102269  1
  Pt  Pt11  1  0.75000000  0.29317031  0.39896373  1
