# generated using pymatgen
data_Y5(FeTe)2
_symmetry_space_group_name_H-M   'P 1'
_cell_length_a   7.86725850
_cell_length_b   7.86725850
_cell_length_c   15.21384931
_cell_angle_alpha   90.00000000
_cell_angle_beta   90.00000000
_cell_angle_gamma   150.50873588
_symmetry_Int_Tables_number   1
_chemical_formula_structural   Y5(FeTe)2
_chemical_formula_sum   'Y10 Fe4 Te4'
_cell_volume   463.56188050
_cell_formula_units_Z   2
loop_
 _symmetry_equiv_pos_site_id
 _symmetry_equiv_pos_as_xyz
  1  'x, y, z'
loop_
 _atom_site_type_symbol
 _atom_site_label
 _atom_site_symmetry_multiplicity
 _atom_site_fract_x
 _atom_site_fract_y
 _atom_site_fract_z
 _atom_site_occupancy
  Y  Y0  1  0.96365790  0.03634210  0.38160562  1
  Y  Y1  1  0.03634210  0.96365790  0.61839438  1
  Y  Y2  1  0.03634210  0.96365790  0.88160562  1
  Y  Y3  1  0.96365790  0.03634210  0.11839438  1
  Y  Y4  1  0.74441666  0.25558334  0.62756412  1
  Y  Y5  1  0.25558334  0.74441666  0.37243588  1
  Y  Y6  1  0.25558334  0.74441666  0.12756412  1
  Y  Y7  1  0.74441666  0.25558334  0.87243588  1
  Y  Y8  1  0.39651333  0.60348667  0.75000000  1
  Y  Y9  1  0.60348667  0.39651333  0.25000000  1
  Fe  Fe10  1  0.82700743  0.17299257  0.25000000  1
  Fe  Fe11  1  0.17299257  0.82700743  0.75000000  1
  Fe  Fe12  1  0.40778482  0.59221518  0.25000000  1
  Fe  Fe13  1  0.59221518  0.40778482  0.75000000  1
  Te  Te14  1  0.61831237  0.38168763  0.03904669  1
  Te  Te15  1  0.38168763  0.61831237  0.96095331  1
  Te  Te16  1  0.38168763  0.61831237  0.53904669  1
  Te  Te17  1  0.61831237  0.38168763  0.46095331  1
