# generated using pymatgen
data_LaCrS3
_symmetry_space_group_name_H-M   'P 1'
_cell_length_a   3.81736164
_cell_length_b   7.90286332
_cell_length_c   13.17595561
_cell_angle_alpha   90.00000000
_cell_angle_beta   90.00000000
_cell_angle_gamma   90.00000000
_symmetry_Int_Tables_number   1
_chemical_formula_structural   LaCrS3
_chemical_formula_sum   'La4 Cr4 S12'
_cell_volume   397.49337889
_cell_formula_units_Z   4
loop_
 _symmetry_equiv_pos_site_id
 _symmetry_equiv_pos_as_xyz
  1  'x, y, z'
loop_
 _atom_site_type_symbol
 _atom_site_label
 _atom_site_symmetry_multiplicity
 _atom_site_fract_x
 _atom_site_fract_y
 _atom_site_fract_z
 _atom_site_occupancy
  La  La0  1  0.25000000  0.08696923  0.82837968  1
  La  La1  1  0.75000000  0.91303077  0.17162032  1
  La  La2  1  0.25000000  0.58696923  0.67162032  1
  La  La3  1  0.75000000  0.41303077  0.32837968  1
  Cr  Cr4  1  0.25000000  0.33975779  0.05257875  1
  Cr  Cr5  1  0.75000000  0.66024221  0.94742125  1
  Cr  Cr6  1  0.25000000  0.83975779  0.44742125  1
  Cr  Cr7  1  0.75000000  0.16024221  0.55257875  1
  S  S8  1  0.25000000  0.48731834  0.89499852  1
  S  S9  1  0.75000000  0.51268166  0.10500148  1
  S  S10  1  0.25000000  0.98731834  0.60500148  1
  S  S11  1  0.75000000  0.01268166  0.39499852  1
  S  S12  1  0.25000000  0.33594587  0.49439146  1
  S  S13  1  0.75000000  0.66405413  0.50560854  1
  S  S14  1  0.25000000  0.83594587  0.00560854  1
  S  S15  1  0.75000000  0.16405413  0.99439146  1
  S  S16  1  0.75000000  0.30353118  0.71208784  1
  S  S17  1  0.25000000  0.69646882  0.28791216  1
  S  S18  1  0.75000000  0.80353118  0.78791216  1
  S  S19  1  0.25000000  0.19646882  0.21208784  1
