# generated using pymatgen
data_Sm2Si3Pt
_symmetry_space_group_name_H-M   'P 1'
_cell_length_a   7.69232469
_cell_length_b   7.69232469
_cell_length_c   7.69232469
_cell_angle_alpha   149.34760823
_cell_angle_beta   148.34232722
_cell_angle_gamma   44.64492600
_symmetry_Int_Tables_number   1
_chemical_formula_structural   Sm2Si3Pt
_chemical_formula_sum   'Sm2 Si3 Pt1'
_cell_volume   121.42585196
_cell_formula_units_Z   1
loop_
 _symmetry_equiv_pos_site_id
 _symmetry_equiv_pos_as_xyz
  1  'x, y, z'
loop_
 _atom_site_type_symbol
 _atom_site_label
 _atom_site_symmetry_multiplicity
 _atom_site_fract_x
 _atom_site_fract_y
 _atom_site_fract_z
 _atom_site_occupancy
  Sm  Sm0  1  0.12801449  0.12801449  -0.00000000  1
  Sm  Sm1  1  0.37246203  0.87246203  0.50000000  1
  Si  Si2  1  0.70542975  0.70542975  -0.00000000  1
  Si  Si3  1  0.54025699  0.54025699  -0.00000000  1
  Si  Si4  1  0.79442802  0.29442802  0.50000000  1
  Pt  Pt5  1  0.95940872  0.45940872  0.50000000  1
