# generated using pymatgen
data_Sr(CdGa)2
_symmetry_space_group_name_H-M   'P 1'
_cell_length_a   4.52918042
_cell_length_b   4.52918080
_cell_length_c   6.54890408
_cell_angle_alpha   110.23044493
_cell_angle_beta   110.23045148
_cell_angle_gamma   90.00000187
_symmetry_Int_Tables_number   1
_chemical_formula_structural   Sr(CdGa)2
_chemical_formula_sum   'Sr1 Cd2 Ga2'
_cell_volume   117.18098677
_cell_formula_units_Z   1
loop_
 _symmetry_equiv_pos_site_id
 _symmetry_equiv_pos_as_xyz
  1  'x, y, z'
loop_
 _atom_site_type_symbol
 _atom_site_label
 _atom_site_symmetry_multiplicity
 _atom_site_fract_x
 _atom_site_fract_y
 _atom_site_fract_z
 _atom_site_occupancy
  Sr  Sr0  1  -0.00000000  -0.00000000  0.00000000  1
  Cd  Cd1  1  0.75000000  0.25000000  0.50000000  1
  Cd  Cd2  1  0.25000000  0.75000000  0.50000000  1
  Ga  Ga3  1  0.60858038  0.60858038  0.21716075  1
  Ga  Ga4  1  0.39141962  0.39141962  0.78283925  1
