# generated using pymatgen
data_TbZnPd
_symmetry_space_group_name_H-M   'P 1'
_cell_length_a   7.25322479
_cell_length_b   7.25322479
_cell_length_c   3.85975873
_cell_angle_alpha   90.00000000
_cell_angle_beta   90.00000000
_cell_angle_gamma   119.99999662
_symmetry_Int_Tables_number   1
_chemical_formula_structural   TbZnPd
_chemical_formula_sum   'Tb3 Zn3 Pd3'
_cell_volume   175.85433516
_cell_formula_units_Z   3
loop_
 _symmetry_equiv_pos_site_id
 _symmetry_equiv_pos_as_xyz
  1  'x, y, z'
loop_
 _atom_site_type_symbol
 _atom_site_label
 _atom_site_symmetry_multiplicity
 _atom_site_fract_x
 _atom_site_fract_y
 _atom_site_fract_z
 _atom_site_occupancy
  Tb  Tb0  1  -0.00000000  0.40444840  0.00000000  1
  Tb  Tb1  1  0.59555160  0.59555160  -0.00000000  1
  Tb  Tb2  1  0.40444840  -0.00000000  -0.00000000  1
  Zn  Zn3  1  0.00000000  0.75088562  0.50000000  1
  Zn  Zn4  1  0.24911438  0.24911438  0.50000000  1
  Zn  Zn5  1  0.75088562  0.00000000  0.50000000  1
  Pd  Pd6  1  -0.00000000  -0.00000000  0.00000000  1
  Pd  Pd7  1  0.33333300  0.66666700  0.50000000  1
  Pd  Pd8  1  0.66666700  0.33333300  0.50000000  1
