# generated using pymatgen
data_KCSN
_symmetry_space_group_name_H-M   'P 1'
_cell_length_a   6.13932104
_cell_length_b   6.13932104
_cell_length_c   6.13932104
_cell_angle_alpha   114.88183501
_cell_angle_beta   112.05957731
_cell_angle_gamma   101.75231337
_symmetry_Int_Tables_number   1
_chemical_formula_structural   KCSN
_chemical_formula_sum   'K2 C2 S2 N2'
_cell_volume   175.62845785
_cell_formula_units_Z   2
loop_
 _symmetry_equiv_pos_site_id
 _symmetry_equiv_pos_as_xyz
  1  'x, y, z'
loop_
 _atom_site_type_symbol
 _atom_site_label
 _atom_site_symmetry_multiplicity
 _atom_site_fract_x
 _atom_site_fract_y
 _atom_site_fract_z
 _atom_site_occupancy
  K  K0  1  0.00000000  0.22640727  0.22640727  1
  K  K1  1  0.50000000  0.72640727  0.22640727  1
  C  C2  1  0.27120232  0.03206275  0.80326607  1
  C  C3  1  0.72879768  0.53206275  0.76086044  1
  S  S4  1  0.11270124  0.84808322  0.46078446  1
  S  S5  1  0.88729876  0.34808322  0.73538198  1
  N  N6  1  0.38354006  0.16764776  0.05118682  1
  N  N7  1  0.61645994  0.66764776  0.78410770  1
