# generated using pymatgen
data_Ag3SbO4
_symmetry_space_group_name_H-M   'P 1'
_cell_length_a   7.15319961
_cell_length_b   7.15319961
_cell_length_c   8.71594938
_cell_angle_alpha   90.00000000
_cell_angle_beta   90.00000000
_cell_angle_gamma   90.00000000
_symmetry_Int_Tables_number   1
_chemical_formula_structural   Ag3SbO4
_chemical_formula_sum   'Ag12 Sb4 O16'
_cell_volume   445.98000464
_cell_formula_units_Z   4
loop_
 _symmetry_equiv_pos_site_id
 _symmetry_equiv_pos_as_xyz
  1  'x, y, z'
loop_
 _atom_site_type_symbol
 _atom_site_label
 _atom_site_symmetry_multiplicity
 _atom_site_fract_x
 _atom_site_fract_y
 _atom_site_fract_z
 _atom_site_occupancy
  Ag  Ag0  1  0.73772073  -0.00000000  0.75000000  1
  Ag  Ag1  1  0.26227927  -0.00000000  0.25000000  1
  Ag  Ag2  1  -0.00000000  0.26227927  0.50000000  1
  Ag  Ag3  1  -0.00000000  0.73772073  -0.00000000  1
  Ag  Ag4  1  0.18035353  -0.00000000  0.75000000  1
  Ag  Ag5  1  0.81964647  -0.00000000  0.25000000  1
  Ag  Ag6  1  -0.00000000  0.81964647  0.50000000  1
  Ag  Ag7  1  -0.00000000  0.18035353  -0.00000000  1
  Ag  Ag8  1  0.79877045  0.50000000  0.75000000  1
  Ag  Ag9  1  0.20122955  0.50000000  0.25000000  1
  Ag  Ag10  1  0.50000000  0.20122955  0.50000000  1
  Ag  Ag11  1  0.50000000  0.79877045  -0.00000000  1
  Sb  Sb12  1  0.27871831  0.50000000  0.75000000  1
  Sb  Sb13  1  0.72128169  0.50000000  0.25000000  1
  Sb  Sb14  1  0.50000000  0.72128169  0.50000000  1
  Sb  Sb15  1  0.50000000  0.27871831  -0.00000000  1
  O  O16  1  0.48372354  0.69573895  0.73039015  1
  O  O17  1  0.51627646  0.30426105  0.23039015  1
  O  O18  1  0.69573895  0.51627646  0.48039015  1
  O  O19  1  0.30426105  0.48372354  0.98039015  1
  O  O20  1  0.48372354  0.30426105  0.76960985  1
  O  O21  1  0.51627646  0.69573895  0.26960985  1
  O  O22  1  0.30426105  0.51627646  0.51960985  1
  O  O23  1  0.69573895  0.48372354  0.01960985  1
  O  O24  1  0.08643882  0.30431035  0.73381241  1
  O  O25  1  0.91356118  0.69568965  0.23381241  1
  O  O26  1  0.30431035  0.91356118  0.48381241  1
  O  O27  1  0.69568965  0.08643882  0.98381241  1
  O  O28  1  0.08643882  0.69568965  0.76618759  1
  O  O29  1  0.91356118  0.30431035  0.26618759  1
  O  O30  1  0.69568965  0.91356118  0.51618759  1
  O  O31  1  0.30431035  0.08643882  0.01618759  1
