# generated using pymatgen
data_SmYS2
_symmetry_space_group_name_H-M   'P 1'
_cell_length_a   6.88844184
_cell_length_b   6.88844184
_cell_length_c   6.88844136
_cell_angle_alpha   33.25654247
_cell_angle_beta   33.25654247
_cell_angle_gamma   33.25654593
_symmetry_Int_Tables_number   1
_chemical_formula_structural   SmYS2
_chemical_formula_sum   'Sm1 Y1 S2'
_cell_volume   87.51228340
_cell_formula_units_Z   1
loop_
 _symmetry_equiv_pos_site_id
 _symmetry_equiv_pos_as_xyz
  1  'x, y, z'
loop_
 _atom_site_type_symbol
 _atom_site_label
 _atom_site_symmetry_multiplicity
 _atom_site_fract_x
 _atom_site_fract_y
 _atom_site_fract_z
 _atom_site_occupancy
  Sm  Sm0  1  -0.00000000  -0.00000000  0.00000000  1
  Y  Y1  1  0.50000000  0.50000000  0.50000000  1
  S  S2  1  0.24662096  0.24662096  0.24662096  1
  S  S3  1  0.75337904  0.75337904  0.75337904  1
