# generated using pymatgen
data_Sm3In5
_symmetry_space_group_name_H-M   'P 1'
_cell_length_a   6.47976708
_cell_length_b   6.47976643
_cell_length_c   10.46424701
_cell_angle_alpha   90.00009314
_cell_angle_beta   90.00009314
_cell_angle_gamma   101.48435019
_symmetry_Int_Tables_number   1
_chemical_formula_structural   Sm3In5
_chemical_formula_sum   'Sm6 In10'
_cell_volume   430.56978824
_cell_formula_units_Z   2
loop_
 _symmetry_equiv_pos_site_id
 _symmetry_equiv_pos_as_xyz
  1  'x, y, z'
loop_
 _atom_site_type_symbol
 _atom_site_label
 _atom_site_symmetry_multiplicity
 _atom_site_fract_x
 _atom_site_fract_y
 _atom_site_fract_z
 _atom_site_occupancy
  Sm  Sm0  1  0.13086422  0.13086422  0.25000000  1
  Sm  Sm1  1  0.86913478  0.86913478  0.75000000  1
  Sm  Sm2  1  0.70214920  0.29785080  0.99999800  1
  Sm  Sm3  1  0.70214820  0.29785080  0.50000200  1
  Sm  Sm4  1  0.29785080  0.70214920  0.99999800  1
  Sm  Sm5  1  0.29785080  0.70214820  0.50000200  1
  In  In6  1  0.00557340  0.57919969  0.25000000  1
  In  In7  1  0.42080131  0.99442760  0.75000000  1
  In  In8  1  0.99442760  0.42080131  0.75000000  1
  In  In9  1  0.57919969  0.00557340  0.25000000  1
  In  In10  1  0.18936441  0.18936441  0.95156889  1
  In  In11  1  0.81063459  0.81063459  0.04842911  1
  In  In12  1  0.18936441  0.18936441  0.54843211  1
  In  In13  1  0.81063459  0.81063459  0.45156989  1
  In  In14  1  0.51284717  0.51284717  0.25000000  1
  In  In15  1  0.48715283  0.48715283  0.75000000  1
