# generated using pymatgen
data_Lu2Au
_symmetry_space_group_name_H-M   'P 1'
_cell_length_a   4.80968483
_cell_length_b   6.92617775
_cell_length_c   8.66762464
_cell_angle_alpha   90.00000000
_cell_angle_beta   90.00000000
_cell_angle_gamma   90.00000000
_symmetry_Int_Tables_number   1
_chemical_formula_structural   Lu2Au
_chemical_formula_sum   'Lu8 Au4'
_cell_volume   288.74225718
_cell_formula_units_Z   4
loop_
 _symmetry_equiv_pos_site_id
 _symmetry_equiv_pos_as_xyz
  1  'x, y, z'
loop_
 _atom_site_type_symbol
 _atom_site_label
 _atom_site_symmetry_multiplicity
 _atom_site_fract_x
 _atom_site_fract_y
 _atom_site_fract_z
 _atom_site_occupancy
  Lu  Lu0  1  0.75000000  0.64732957  0.57937663  1
  Lu  Lu1  1  0.75000000  0.14732957  0.92062337  1
  Lu  Lu2  1  0.25000000  0.35267043  0.42062337  1
  Lu  Lu3  1  0.25000000  0.85267043  0.07937663  1
  Lu  Lu4  1  0.75000000  0.01517849  0.32310535  1
  Lu  Lu5  1  0.75000000  0.51517849  0.17689465  1
  Lu  Lu6  1  0.25000000  0.98482151  0.67689465  1
  Lu  Lu7  1  0.25000000  0.48482051  0.82310535  1
  Au  Au8  1  0.75000000  0.24284199  0.59841975  1
  Au  Au9  1  0.75000000  0.74284199  0.90158025  1
  Au  Au10  1  0.25000000  0.75715801  0.40158025  1
  Au  Au11  1  0.25000000  0.25715801  0.09841975  1
