# generated using pymatgen
data_CdHgTe2
_symmetry_space_group_name_H-M   'P 1'
_cell_length_a   8.04402020
_cell_length_b   8.04402020
_cell_length_c   8.04401969
_cell_angle_alpha   33.57995587
_cell_angle_beta   33.57995587
_cell_angle_gamma   33.57996040
_symmetry_Int_Tables_number   1
_chemical_formula_structural   CdHgTe2
_chemical_formula_sum   'Cd1 Hg1 Te2'
_cell_volume   141.83587613
_cell_formula_units_Z   1
loop_
 _symmetry_equiv_pos_site_id
 _symmetry_equiv_pos_as_xyz
  1  'x, y, z'
loop_
 _atom_site_type_symbol
 _atom_site_label
 _atom_site_symmetry_multiplicity
 _atom_site_fract_x
 _atom_site_fract_y
 _atom_site_fract_z
 _atom_site_occupancy
  Cd  Cd0  1  0.99982653  0.99982653  0.99982653  1
  Hg  Hg1  1  0.50000908  0.50000908  0.50000908  1
  Te  Te2  1  0.12481884  0.12481884  0.12481884  1
  Te  Te3  1  0.62534555  0.62534555  0.62534555  1
