# generated using pymatgen
data_Yb2Fe3Cu
_symmetry_space_group_name_H-M   'P 1'
_cell_length_a   5.18000562
_cell_length_b   5.18000562
_cell_length_c   5.18000557
_cell_angle_alpha   58.58100135
_cell_angle_beta   58.58100135
_cell_angle_gamma   58.58099600
_symmetry_Int_Tables_number   1
_chemical_formula_structural   Yb2Fe3Cu
_chemical_formula_sum   'Yb2 Fe3 Cu1'
_cell_volume   95.09351044
_cell_formula_units_Z   1
loop_
 _symmetry_equiv_pos_site_id
 _symmetry_equiv_pos_as_xyz
  1  'x, y, z'
loop_
 _atom_site_type_symbol
 _atom_site_label
 _atom_site_symmetry_multiplicity
 _atom_site_fract_x
 _atom_site_fract_y
 _atom_site_fract_z
 _atom_site_occupancy
  Yb  Yb0  1  0.12345855  0.12345855  0.12345855  1
  Yb  Yb1  1  0.87654145  0.87654145  0.87654145  1
  Fe  Fe2  1  0.50000000  0.00000000  0.50000000  1
  Fe  Fe3  1  0.00000000  0.50000000  0.50000000  1
  Fe  Fe4  1  0.50000000  0.50000000  0.00000000  1
  Cu  Cu5  1  0.50000000  0.50000000  0.50000000  1
