# generated using pymatgen
data_Lu(Al5Os)2
_symmetry_space_group_name_H-M   'P 1'
_cell_length_a   6.79652472
_cell_length_b   6.79652472
_cell_length_c   9.04893738
_cell_angle_alpha   90.00000000
_cell_angle_beta   90.00000000
_cell_angle_gamma   96.74531011
_symmetry_Int_Tables_number   1
_chemical_formula_structural   Lu(Al5Os)2
_chemical_formula_sum   'Lu2 Al20 Os4'
_cell_volume   415.10195454
_cell_formula_units_Z   2
loop_
 _symmetry_equiv_pos_site_id
 _symmetry_equiv_pos_as_xyz
  1  'x, y, z'
loop_
 _atom_site_type_symbol
 _atom_site_label
 _atom_site_symmetry_multiplicity
 _atom_site_fract_x
 _atom_site_fract_y
 _atom_site_fract_z
 _atom_site_occupancy
  Lu  Lu0  1  0.86880465  0.13119535  0.75000000  1
  Lu  Lu1  1  0.13119535  0.86880465  0.25000000  1
  Al  Al2  1  0.51908285  0.78324057  0.75000000  1
  Al  Al3  1  0.78324057  0.51908285  0.25000000  1
  Al  Al4  1  0.48091715  0.21675943  0.25000000  1
  Al  Al5  1  0.21675943  0.48091715  0.75000000  1
  Al  Al6  1  0.62391321  0.37608679  0.95325153  1
  Al  Al7  1  0.37608679  0.62391321  0.04674847  1
  Al  Al8  1  0.62391321  0.37608679  0.54674847  1
  Al  Al9  1  0.37608679  0.62391321  0.45325153  1
  Al  Al10  1  0.41502488  0.14637612  0.75000000  1
  Al  Al11  1  0.14637612  0.41502488  0.25000000  1
  Al  Al12  1  0.58497512  0.85362388  0.25000000  1
  Al  Al13  1  0.85362388  0.58497512  0.75000000  1
  Al  Al14  1  0.84535025  0.15464975  0.39940992  1
  Al  Al15  1  0.15464975  0.84535025  0.60059008  1
  Al  Al16  1  0.84535025  0.15464975  0.10059008  1
  Al  Al17  1  0.15464975  0.84535025  0.89940992  1
  Al  Al18  1  0.77584736  0.77584736  0.00000000  1
  Al  Al19  1  0.77584736  0.77584736  0.50000000  1
  Al  Al20  1  0.22415264  0.22415264  0.00000000  1
  Al  Al21  1  0.22415264  0.22415264  0.50000000  1
  Os  Os22  1  0.50000000  0.00000000  0.00000000  1
  Os  Os23  1  -0.00000000  0.50000000  0.00000000  1
  Os  Os24  1  0.50000000  0.00000000  0.50000000  1
  Os  Os25  1  -0.00000000  0.50000000  0.50000000  1
