# generated using pymatgen
data_Sr2GaSi
_symmetry_space_group_name_H-M   'P 1'
_cell_length_a   6.34707757
_cell_length_b   6.34707757
_cell_length_c   4.23086905
_cell_angle_alpha   90.00000000
_cell_angle_beta   90.00000000
_cell_angle_gamma   136.31613566
_symmetry_Int_Tables_number   1
_chemical_formula_structural   Sr2GaSi
_chemical_formula_sum   'Sr2 Ga1 Si1'
_cell_volume   117.72082832
_cell_formula_units_Z   1
loop_
 _symmetry_equiv_pos_site_id
 _symmetry_equiv_pos_as_xyz
  1  'x, y, z'
loop_
 _atom_site_type_symbol
 _atom_site_label
 _atom_site_symmetry_multiplicity
 _atom_site_fract_x
 _atom_site_fract_y
 _atom_site_fract_z
 _atom_site_occupancy
  Sr  Sr0  1  0.36076417  0.63923483  0.50000000  1
  Sr  Sr1  1  0.64122458  0.35877542  0.00000000  1
  Ga  Ga2  1  0.06160092  0.93839908  0.50000000  1
  Si  Si3  1  0.93641033  0.06358967  0.00000000  1
