# generated using pymatgen
data_Er4Ni2C5
_symmetry_space_group_name_H-M   'P 1'
_cell_length_a   3.57413439
_cell_length_b   3.65334410
_cell_length_c   11.45838755
_cell_angle_alpha   90.00000000
_cell_angle_beta   90.00000000
_cell_angle_gamma   90.00000000
_symmetry_Int_Tables_number   1
_chemical_formula_structural   Er4Ni2C5
_chemical_formula_sum   'Er4 Ni2 C5'
_cell_volume   149.61838570
_cell_formula_units_Z   1
loop_
 _symmetry_equiv_pos_site_id
 _symmetry_equiv_pos_as_xyz
  1  'x, y, z'
loop_
 _atom_site_type_symbol
 _atom_site_label
 _atom_site_symmetry_multiplicity
 _atom_site_fract_x
 _atom_site_fract_y
 _atom_site_fract_z
 _atom_site_occupancy
  Er  Er0  1  0.50000000  0.50266818  0.20371825  1
  Er  Er1  1  0.50000000  0.50266818  0.79628175  1
  Er  Er2  1  0.50000000  0.21005623  0.50000000  1
  Er  Er3  1  -0.00000000  0.99973563  0.00000000  1
  Ni  Ni4  1  0.00000000  0.69943357  0.38454494  1
  Ni  Ni5  1  -0.00000000  0.69943357  0.61545506  1
  C  C6  1  -0.00000000  0.99922209  0.22948862  1
  C  C7  1  0.00000000  0.99922209  0.77051138  1
  C  C8  1  0.00000000  0.19811684  0.33324588  1
  C  C9  1  0.00000000  0.19811684  0.66675412  1
  C  C10  1  0.50000000  0.49282679  0.00000000  1
