# generated using pymatgen
data_AcSe3
_symmetry_space_group_name_H-M   'P 1'
_cell_length_a   6.26563080
_cell_length_b   6.26563080
_cell_length_c   6.26563080
_cell_angle_alpha   139.50539631
_cell_angle_beta   139.50539631
_cell_angle_gamma   58.60505937
_symmetry_Int_Tables_number   1
_chemical_formula_structural   AcSe3
_chemical_formula_sum   'Ac1 Se3'
_cell_volume   102.76133575
_cell_formula_units_Z   1
loop_
 _symmetry_equiv_pos_site_id
 _symmetry_equiv_pos_as_xyz
  1  'x, y, z'
loop_
 _atom_site_type_symbol
 _atom_site_label
 _atom_site_symmetry_multiplicity
 _atom_site_fract_x
 _atom_site_fract_y
 _atom_site_fract_z
 _atom_site_occupancy
  Ac  Ac0  1  -0.00000000  0.00000000  0.00000000  1
  Se  Se1  1  0.74999900  0.25000000  0.49999900  1
  Se  Se2  1  0.25000000  0.74999900  0.49999900  1
  Se  Se3  1  0.50000000  0.50000000  0.00000000  1
