# generated using pymatgen
data_Tb3Pr
_symmetry_space_group_name_H-M   'P 1'
_cell_length_a   7.34812989
_cell_length_b   7.34813137
_cell_length_c   5.86928879
_cell_angle_alpha   90.00000000
_cell_angle_beta   90.00000000
_cell_angle_gamma   120.00000237
_symmetry_Int_Tables_number   1
_chemical_formula_structural   Tb3Pr
_chemical_formula_sum   'Tb6 Pr2'
_cell_volume   274.45417217
_cell_formula_units_Z   2
loop_
 _symmetry_equiv_pos_site_id
 _symmetry_equiv_pos_as_xyz
  1  'x, y, z'
loop_
 _atom_site_type_symbol
 _atom_site_label
 _atom_site_symmetry_multiplicity
 _atom_site_fract_x
 _atom_site_fract_y
 _atom_site_fract_z
 _atom_site_occupancy
  Tb  Tb0  1  0.16372368  0.32744736  0.25000000  1
  Tb  Tb1  1  0.67255264  0.83627632  0.25000000  1
  Tb  Tb2  1  0.16372368  0.83627632  0.25000000  1
  Tb  Tb3  1  0.83627632  0.67255264  0.75000000  1
  Tb  Tb4  1  0.32744736  0.16372368  0.75000000  1
  Tb  Tb5  1  0.83627632  0.16372368  0.75000000  1
  Pr  Pr6  1  0.33333300  0.66666700  0.75000000  1
  Pr  Pr7  1  0.66666700  0.33333300  0.25000000  1
