# generated using pymatgen
data_Gd2InNi2
_symmetry_space_group_name_H-M   'P 1'
_cell_length_a   7.37860578
_cell_length_b   7.37860578
_cell_length_c   3.76263584
_cell_angle_alpha   90.00000000
_cell_angle_beta   90.00000000
_cell_angle_gamma   149.55929015
_symmetry_Int_Tables_number   1
_chemical_formula_structural   Gd2InNi2
_chemical_formula_sum   'Gd2 In1 Ni2'
_cell_volume   103.78768489
_cell_formula_units_Z   1
loop_
 _symmetry_equiv_pos_site_id
 _symmetry_equiv_pos_as_xyz
  1  'x, y, z'
loop_
 _atom_site_type_symbol
 _atom_site_label
 _atom_site_symmetry_multiplicity
 _atom_site_fract_x
 _atom_site_fract_y
 _atom_site_fract_z
 _atom_site_occupancy
  Gd  Gd0  1  0.36297805  0.63702195  0.50000000  1
  Gd  Gd1  1  0.63702195  0.36297805  0.50000000  1
  In  In2  1  -0.00000000  0.00000000  0.00000000  1
  Ni  Ni3  1  0.20031101  0.79968899  -0.00000000  1
  Ni  Ni4  1  0.79968899  0.20031101  -0.00000000  1
