# generated using pymatgen
data_Ca2GePd2
_symmetry_space_group_name_H-M   'P 1'
_cell_length_a   9.21190934
_cell_length_b   8.22891636
_cell_length_c   5.71296801
_cell_angle_alpha   80.51513002
_cell_angle_beta   61.77280061
_cell_angle_gamma   37.71206936
_symmetry_Int_Tables_number   1
_chemical_formula_structural   Ca2GePd2
_chemical_formula_sum   'Ca4 Ge2 Pd4'
_cell_volume   215.06828879
_cell_formula_units_Z   2
loop_
 _symmetry_equiv_pos_site_id
 _symmetry_equiv_pos_as_xyz
  1  'x, y, z'
loop_
 _atom_site_type_symbol
 _atom_site_label
 _atom_site_symmetry_multiplicity
 _atom_site_fract_x
 _atom_site_fract_y
 _atom_site_fract_z
 _atom_site_occupancy
  Ca  Ca0  1  0.03270542  0.06024965  0.63568713  1
  Ca  Ca1  1  0.27135680  0.63568713  0.06024965  1
  Ca  Ca2  1  0.61431287  0.97864320  0.21729458  1
  Ca  Ca3  1  0.18975035  0.21729458  0.97864320  1
  Ge  Ge4  1  0.89198646  0.60801354  0.60801354  1
  Ge  Ge5  1  0.64198646  0.35801354  0.35801354  1
  Pd  Pd6  1  0.61537805  0.63254180  0.06264588  1
  Pd  Pd7  1  0.68943327  0.06264588  0.63254180  1
  Pd  Pd8  1  0.18735412  0.56056673  0.63462195  1
  Pd  Pd9  1  0.61745820  0.63462195  0.56056673  1
