# generated using pymatgen
data_LaYIn6
_symmetry_space_group_name_H-M   'P 1'
_cell_length_a   4.71335457
_cell_length_b   4.71335457
_cell_length_c   9.33676653
_cell_angle_alpha   90.00000000
_cell_angle_beta   90.00000000
_cell_angle_gamma   90.00000000
_symmetry_Int_Tables_number   1
_chemical_formula_structural   LaYIn6
_chemical_formula_sum   'La1 Y1 In6'
_cell_volume   207.42290973
_cell_formula_units_Z   1
loop_
 _symmetry_equiv_pos_site_id
 _symmetry_equiv_pos_as_xyz
  1  'x, y, z'
loop_
 _atom_site_type_symbol
 _atom_site_label
 _atom_site_symmetry_multiplicity
 _atom_site_fract_x
 _atom_site_fract_y
 _atom_site_fract_z
 _atom_site_occupancy
  La  La0  1  0.00000000  -0.00000000  0.00000000  1
  Y  Y1  1  -0.00000000  0.00000000  0.50000000  1
  In  In2  1  0.50000000  0.50000000  0.00000000  1
  In  In3  1  0.50000000  0.50000000  0.50000000  1
  In  In4  1  0.50000000  0.00000000  0.25713787  1
  In  In5  1  0.50000000  0.00000000  0.74286213  1
  In  In6  1  -0.00000000  0.50000000  0.25713787  1
  In  In7  1  -0.00000000  0.50000000  0.74286213  1
