# generated using pymatgen
data_USnAu
_symmetry_space_group_name_H-M   'P 1'
_cell_length_a   5.08770805
_cell_length_b   5.08770805
_cell_length_c   5.88752298
_cell_angle_alpha   90.00000000
_cell_angle_beta   90.00000000
_cell_angle_gamma   119.99997721
_symmetry_Int_Tables_number   1
_chemical_formula_structural   USnAu
_chemical_formula_sum   'U2 Sn2 Au2'
_cell_volume   131.97987429
_cell_formula_units_Z   2
loop_
 _symmetry_equiv_pos_site_id
 _symmetry_equiv_pos_as_xyz
  1  'x, y, z'
loop_
 _atom_site_type_symbol
 _atom_site_label
 _atom_site_symmetry_multiplicity
 _atom_site_fract_x
 _atom_site_fract_y
 _atom_site_fract_z
 _atom_site_occupancy
  U  U0  1  0.00000000  0.00000000  0.00000000  1
  U  U1  1  0.00000000  0.00000000  0.50000000  1
  Sn  Sn2  1  0.66666700  0.33333300  0.24996762  1
  Sn  Sn3  1  0.33333300  0.66666700  0.75003238  1
  Au  Au4  1  0.66666700  0.33333300  0.75003748  1
  Au  Au5  1  0.33333300  0.66666700  0.24996252  1
