# generated using pymatgen
data_Eu(Al2Cu)4
_symmetry_space_group_name_H-M   'P 1'
_cell_length_a   6.72063418
_cell_length_b   6.72063627
_cell_length_c   6.71885897
_cell_angle_alpha   98.32155689
_cell_angle_beta   98.32162084
_cell_angle_gamma   135.29221991
_symmetry_Int_Tables_number   1
_chemical_formula_structural   Eu(Al2Cu)4
_chemical_formula_sum   'Eu1 Al8 Cu4'
_cell_volume   197.42681141
_cell_formula_units_Z   1
loop_
 _symmetry_equiv_pos_site_id
 _symmetry_equiv_pos_as_xyz
  1  'x, y, z'
loop_
 _atom_site_type_symbol
 _atom_site_label
 _atom_site_symmetry_multiplicity
 _atom_site_fract_x
 _atom_site_fract_y
 _atom_site_fract_z
 _atom_site_occupancy
  Eu  Eu0  1  0.00000000  0.00000000  0.00000000  1
  Al  Al1  1  0.00010665  0.34866932  0.34865745  1
  Al  Al2  1  0.99989335  0.65133068  0.65134255  1
  Al  Al3  1  0.65133068  0.99989335  0.65134255  1
  Al  Al4  1  0.34866932  0.00010665  0.34865745  1
  Al  Al5  1  0.50007238  0.27837295  0.77826032  1
  Al  Al6  1  0.49992762  0.72162705  0.22173968  1
  Al  Al7  1  0.72162705  0.49992762  0.22173968  1
  Al  Al8  1  0.27837295  0.50007238  0.77826032  1
  Cu  Cu9  1  0.00000000  0.00000000  0.50000000  1
  Cu  Cu10  1  0.50000000  0.50000000  0.50000000  1
  Cu  Cu11  1  0.50000000  0.00000000  0.00000000  1
  Cu  Cu12  1  0.00000000  0.50000000  0.00000000  1
