# generated using pymatgen
data_LaSnAu
_symmetry_space_group_name_H-M   'P 1'
_cell_length_a   4.76189184
_cell_length_b   4.76189184
_cell_length_c   8.05012322
_cell_angle_alpha   90.00000000
_cell_angle_beta   90.00000000
_cell_angle_gamma   119.99999145
_symmetry_Int_Tables_number   1
_chemical_formula_structural   LaSnAu
_chemical_formula_sum   'La2 Sn2 Au2'
_cell_volume   158.08557801
_cell_formula_units_Z   2
loop_
 _symmetry_equiv_pos_site_id
 _symmetry_equiv_pos_as_xyz
  1  'x, y, z'
loop_
 _atom_site_type_symbol
 _atom_site_label
 _atom_site_symmetry_multiplicity
 _atom_site_fract_x
 _atom_site_fract_y
 _atom_site_fract_z
 _atom_site_occupancy
  La  La0  1  0.00000000  0.00000000  0.69419680  1
  La  La1  1  0.00000000  0.00000000  0.19419680  1
  Sn  Sn2  1  0.33333300  0.66666700  0.41876241  1
  Sn  Sn3  1  0.66666700  0.33333300  0.91876241  1
  Au  Au4  1  0.66666700  0.33333300  0.49387079  1
  Au  Au5  1  0.33333300  0.66666700  0.99387079  1
