# generated using pymatgen
data_Pr
_symmetry_space_group_name_H-M   'P 1'
_cell_length_a   3.71196490
_cell_length_b   3.70916293
_cell_length_c   6.41341921
_cell_angle_alpha   73.23032932
_cell_angle_beta   73.17852231
_cell_angle_gamma   59.97500779
_symmetry_Int_Tables_number   1
_chemical_formula_structural   Pr
_chemical_formula_sum   Pr2
_cell_volume   72.07220597
_cell_formula_units_Z   2
loop_
 _symmetry_equiv_pos_site_id
 _symmetry_equiv_pos_as_xyz
  1  'x, y, z'
loop_
 _atom_site_type_symbol
 _atom_site_label
 _atom_site_symmetry_multiplicity
 _atom_site_fract_x
 _atom_site_fract_y
 _atom_site_fract_z
 _atom_site_occupancy
  Pr  Pr0  1  0.25803691  0.73360136  0.75032482  1
  Pr  Pr1  1  0.74196309  0.26639864  0.24967518  1
