# generated using pymatgen
data_NpF5
_symmetry_space_group_name_H-M   'P 1'
_cell_length_a   4.43997630
_cell_length_b   5.05031665
_cell_length_c   5.05031623
_cell_angle_alpha   78.85893703
_cell_angle_beta   63.92330898
_cell_angle_gamma   63.92329899
_symmetry_Int_Tables_number   1
_chemical_formula_structural   NpF5
_chemical_formula_sum   'Np1 F5'
_cell_volume   91.36295988
_cell_formula_units_Z   1
loop_
 _symmetry_equiv_pos_site_id
 _symmetry_equiv_pos_as_xyz
  1  'x, y, z'
loop_
 _atom_site_type_symbol
 _atom_site_label
 _atom_site_symmetry_multiplicity
 _atom_site_fract_x
 _atom_site_fract_y
 _atom_site_fract_z
 _atom_site_occupancy
  Np  Np0  1  0.00000000  -0.00000000  0.00000000  1
  F  F1  1  0.10991221  0.18319163  0.59698294  1
  F  F2  1  0.89008779  0.81680837  0.40301706  1
  F  F3  1  0.70689516  0.40301706  0.18319163  1
  F  F4  1  0.29310484  0.59698294  0.81680837  1
  F  F5  1  0.50000000  -0.00000000  0.00000000  1
