# generated using pymatgen
data_Lu2Pt
_symmetry_space_group_name_H-M   'P 1'
_cell_length_a   4.65337601
_cell_length_b   6.94302305
_cell_length_c   8.54049246
_cell_angle_alpha   90.00000000
_cell_angle_beta   90.00000000
_cell_angle_gamma   90.00000000
_symmetry_Int_Tables_number   1
_chemical_formula_structural   Lu2Pt
_chemical_formula_sum   'Lu8 Pt4'
_cell_volume   275.93047415
_cell_formula_units_Z   4
loop_
 _symmetry_equiv_pos_site_id
 _symmetry_equiv_pos_as_xyz
  1  'x, y, z'
loop_
 _atom_site_type_symbol
 _atom_site_label
 _atom_site_symmetry_multiplicity
 _atom_site_fract_x
 _atom_site_fract_y
 _atom_site_fract_z
 _atom_site_occupancy
  Lu  Lu0  1  0.75000000  0.64420259  0.57857370  1
  Lu  Lu1  1  0.75000000  0.14420159  0.92142630  1
  Lu  Lu2  1  0.25000000  0.35579841  0.42142530  1
  Lu  Lu3  1  0.25000000  0.85579841  0.07857570  1
  Lu  Lu4  1  0.75000000  0.51091101  0.16733560  1
  Lu  Lu5  1  0.75000000  0.01090901  0.33266440  1
  Lu  Lu6  1  0.25000000  0.48908999  0.83266540  1
  Lu  Lu7  1  0.25000000  0.98908899  0.66733360  1
  Pt  Pt8  1  0.75000000  0.24149789  0.59548242  1
  Pt  Pt9  1  0.75000000  0.74149889  0.90451658  1
  Pt  Pt10  1  0.25000000  0.75850011  0.40451458  1
  Pt  Pt11  1  0.25000000  0.25850211  0.09548442  1
