# generated using pymatgen
data_HfNiGe
_symmetry_space_group_name_H-M   'P 1'
_cell_length_a   3.84461896
_cell_length_b   6.47917456
_cell_length_c   7.25909859
_cell_angle_alpha   90.00000000
_cell_angle_beta   90.00000000
_cell_angle_gamma   90.00000000
_symmetry_Int_Tables_number   1
_chemical_formula_structural   HfNiGe
_chemical_formula_sum   'Hf4 Ni4 Ge4'
_cell_volume   180.82383634
_cell_formula_units_Z   4
loop_
 _symmetry_equiv_pos_site_id
 _symmetry_equiv_pos_as_xyz
  1  'x, y, z'
loop_
 _atom_site_type_symbol
 _atom_site_label
 _atom_site_symmetry_multiplicity
 _atom_site_fract_x
 _atom_site_fract_y
 _atom_site_fract_z
 _atom_site_occupancy
  Hf  Hf0  1  0.25000000  0.01832341  0.19013868  1
  Hf  Hf1  1  0.25000000  0.51832341  0.30986132  1
  Hf  Hf2  1  0.75000000  0.98167659  0.80986132  1
  Hf  Hf3  1  0.75000000  0.48167659  0.69013868  1
  Ni  Ni4  1  0.25000000  0.13948230  0.56226568  1
  Ni  Ni5  1  0.25000000  0.63948230  0.93773432  1
  Ni  Ni6  1  0.75000000  0.86051770  0.43773432  1
  Ni  Ni7  1  0.75000000  0.36051770  0.06226568  1
  Ge  Ge8  1  0.25000000  0.76508528  0.61510689  1
  Ge  Ge9  1  0.25000000  0.26508528  0.88489311  1
  Ge  Ge10  1  0.75000000  0.23491472  0.38489311  1
  Ge  Ge11  1  0.75000000  0.73491472  0.11510689  1
