# generated using pymatgen
data_Ho3Er
_symmetry_space_group_name_H-M   'P 1'
_cell_length_a   6.09868505
_cell_length_b   6.09868505
_cell_length_c   6.09868505
_cell_angle_alpha   131.75685994
_cell_angle_beta   131.75685994
_cell_angle_gamma   70.61331230
_symmetry_Int_Tables_number   1
_chemical_formula_structural   Ho3Er
_chemical_formula_sum   'Ho3 Er1'
_cell_volume   123.66604192
_cell_formula_units_Z   1
loop_
 _symmetry_equiv_pos_site_id
 _symmetry_equiv_pos_as_xyz
  1  'x, y, z'
loop_
 _atom_site_type_symbol
 _atom_site_label
 _atom_site_symmetry_multiplicity
 _atom_site_fract_x
 _atom_site_fract_y
 _atom_site_fract_z
 _atom_site_occupancy
  Ho  Ho0  1  0.75000000  0.25000000  0.50000000  1
  Ho  Ho1  1  0.25000000  0.75000000  0.50000000  1
  Ho  Ho2  1  0.50000000  0.50000000  -0.00000000  1
  Er  Er3  1  -0.00000000  -0.00000000  -0.00000000  1
