# generated using pymatgen
data_PrSb2
_symmetry_space_group_name_H-M   'P 1'
_cell_length_a   4.40813604
_cell_length_b   4.40813604
_cell_length_c   18.68831924
_cell_angle_alpha   90.00000000
_cell_angle_beta   90.00000000
_cell_angle_gamma   91.42477137
_symmetry_Int_Tables_number   1
_chemical_formula_structural   PrSb2
_chemical_formula_sum   'Pr4 Sb8'
_cell_volume   363.03285630
_cell_formula_units_Z   4
loop_
 _symmetry_equiv_pos_site_id
 _symmetry_equiv_pos_as_xyz
  1  'x, y, z'
loop_
 _atom_site_type_symbol
 _atom_site_label
 _atom_site_symmetry_multiplicity
 _atom_site_fract_x
 _atom_site_fract_y
 _atom_site_fract_z
 _atom_site_occupancy
  Pr  Pr0  1  0.36209594  0.36209594  0.88841499  1
  Pr  Pr1  1  0.63790406  0.63790406  0.11158501  1
  Pr  Pr2  1  0.13790406  0.13790406  0.38841499  1
  Pr  Pr3  1  0.86209594  0.86209594  0.61158501  1
  Sb  Sb4  1  0.36794021  0.36794021  0.56159452  1
  Sb  Sb5  1  0.63205979  0.63205979  0.43840548  1
  Sb  Sb6  1  0.13205979  0.13205979  0.06159452  1
  Sb  Sb7  1  0.86794021  0.86794021  0.93840548  1
  Sb  Sb8  1  0.87743660  0.37743660  0.75000000  1
  Sb  Sb9  1  0.62256340  0.12256340  0.25000000  1
  Sb  Sb10  1  0.12256340  0.62256340  0.25000000  1
  Sb  Sb11  1  0.37743660  0.87743660  0.75000000  1
