# generated using pymatgen
data_ErMn2
_symmetry_space_group_name_H-M   'P 1'
_cell_length_a   5.45934381
_cell_length_b   5.45935286
_cell_length_c   8.87013130
_cell_angle_alpha   90.00015993
_cell_angle_beta   89.99988805
_cell_angle_gamma   119.99970692
_symmetry_Int_Tables_number   1
_chemical_formula_structural   ErMn2
_chemical_formula_sum   'Er4 Mn8'
_cell_volume   228.95154230
_cell_formula_units_Z   4
loop_
 _symmetry_equiv_pos_site_id
 _symmetry_equiv_pos_as_xyz
  1  'x, y, z'
loop_
 _atom_site_type_symbol
 _atom_site_label
 _atom_site_symmetry_multiplicity
 _atom_site_fract_x
 _atom_site_fract_y
 _atom_site_fract_z
 _atom_site_occupancy
  Er  Er0  1  0.33333300  0.66666600  0.43198774  1
  Er  Er1  1  0.66666700  0.33333400  0.93199614  1
  Er  Er2  1  0.66666700  0.33333400  0.56801226  1
  Er  Er3  1  0.33333300  0.66666600  0.06800386  1
  Mn  Mn4  1  0.16832312  0.33664623  0.75001212  1
  Mn  Mn5  1  0.83167588  0.16832412  0.24998588  1
  Mn  Mn6  1  0.33664623  0.16832312  0.24998888  1
  Mn  Mn7  1  0.66335377  0.83167688  0.75001112  1
  Mn  Mn8  1  -0.00000000  -0.00000000  -0.00000000  1
  Mn  Mn9  1  -0.00000000  -0.00000000  0.50000000  1
  Mn  Mn10  1  0.83167688  0.66335377  0.24998788  1
  Mn  Mn11  1  0.16832412  0.83167588  0.75001412  1
