# generated using pymatgen
data_Hf2(NiP)3
_symmetry_space_group_name_H-M   'P 1'
_cell_length_a   3.58848950
_cell_length_b   9.94417795
_cell_length_c   12.18907745
_cell_angle_alpha   90.00080496
_cell_angle_beta   90.00000000
_cell_angle_gamma   90.00000000
_symmetry_Int_Tables_number   1
_chemical_formula_structural   Hf2(NiP)3
_chemical_formula_sum   'Hf8 Ni12 P12'
_cell_volume   434.96208694
_cell_formula_units_Z   4
loop_
 _symmetry_equiv_pos_site_id
 _symmetry_equiv_pos_as_xyz
  1  'x, y, z'
loop_
 _atom_site_type_symbol
 _atom_site_label
 _atom_site_symmetry_multiplicity
 _atom_site_fract_x
 _atom_site_fract_y
 _atom_site_fract_z
 _atom_site_occupancy
  Hf  Hf0  1  0.25000000  0.33578415  0.99550445  1
  Hf  Hf1  1  0.25000000  0.16422544  0.49551181  1
  Hf  Hf2  1  0.75000000  0.66419136  0.00449599  1
  Hf  Hf3  1  0.75000000  0.83580480  0.50448350  1
  Hf  Hf4  1  0.25000000  0.42716794  0.70966053  1
  Hf  Hf5  1  0.25000000  0.07282554  0.20962669  1
  Hf  Hf6  1  0.75000000  0.57281094  0.29036425  1
  Hf  Hf7  1  0.75000000  0.92718436  0.79035204  1
  Ni  Ni8  1  0.25000000  0.90402547  0.98247391  1
  Ni  Ni9  1  0.25000000  0.59600106  0.48268063  1
  Ni  Ni10  1  0.75000000  0.09597476  0.01729980  1
  Ni  Ni11  1  0.75000000  0.40399596  0.51753206  1
  Ni  Ni12  1  0.25000000  0.13518775  0.71675977  1
  Ni  Ni13  1  0.25000000  0.36476223  0.21672924  1
  Ni  Ni14  1  0.75000000  0.86481863  0.28327219  1
  Ni  Ni15  1  0.75000000  0.63519571  0.78325714  1
  Ni  Ni16  1  0.25000000  0.77478699  0.16505367  1
  Ni  Ni17  1  0.25000000  0.72527113  0.66518629  1
  Ni  Ni18  1  0.75000000  0.22523152  0.83484611  1
  Ni  Ni19  1  0.75000000  0.27479612  0.33491243  1
  P  P20  1  0.25000000  0.10282011  0.89833873  1
  P  P21  1  0.25000000  0.39721299  0.39839898  1
  P  P22  1  0.75000000  0.89717475  0.10161260  1
  P  P23  1  0.75000000  0.60285537  0.60167878  1
  P  P24  1  0.25000000  0.73856110  0.85503858  1
  P  P25  1  0.25000000  0.76138599  0.35503287  1
  P  P26  1  0.75000000  0.26137221  0.14495000  1
  P  P27  1  0.75000000  0.23856608  0.64496527  1
  P  P28  1  0.25000000  0.55451312  0.12728951  1
  P  P29  1  0.25000000  0.94548291  0.62728099  1
  P  P30  1  0.75000000  0.44549592  0.87270581  1
  P  P31  1  0.75000000  0.05451758  0.37270336  1
