# generated using pymatgen
data_Er3Ni7B2
_symmetry_space_group_name_H-M   'P 1'
_cell_length_a   5.00647881
_cell_length_b   5.00646796
_cell_length_c   14.11959210
_cell_angle_alpha   89.99999655
_cell_angle_beta   90.00021798
_cell_angle_gamma   119.99591320
_symmetry_Int_Tables_number   1
_chemical_formula_structural   Er3Ni7B2
_chemical_formula_sum   'Er6 Ni14 B4'
_cell_volume   306.50283003
_cell_formula_units_Z   2
loop_
 _symmetry_equiv_pos_site_id
 _symmetry_equiv_pos_as_xyz
  1  'x, y, z'
loop_
 _atom_site_type_symbol
 _atom_site_label
 _atom_site_symmetry_multiplicity
 _atom_site_fract_x
 _atom_site_fract_y
 _atom_site_fract_z
 _atom_site_occupancy
  Er  Er0  1  0.33332608  0.66667257  0.46766872  1
  Er  Er1  1  0.66667476  0.33332756  0.96773476  1
  Er  Er2  1  0.66667419  0.33332877  0.53225940  1
  Er  Er3  1  0.33332481  0.66667119  0.03233505  1
  Er  Er4  1  0.66666798  0.33333417  0.74995955  1
  Er  Er5  1  0.33333054  0.66666664  0.25004078  1
  Ni  Ni6  1  0.83460632  0.16539327  0.35161570  1
  Ni  Ni7  1  0.83458823  0.66918746  0.35161258  1
  Ni  Ni8  1  0.00000217  0.00001460  0.00008849  1
  Ni  Ni9  1  -0.00000416  0.99999211  0.49991494  1
  Ni  Ni10  1  0.83457335  0.66919325  0.14848495  1
  Ni  Ni11  1  0.16539917  0.83460528  0.64829125  1
  Ni  Ni12  1  0.66919602  0.83458870  0.64829564  1
  Ni  Ni13  1  0.33079486  0.16540641  0.14848528  1
  Ni  Ni14  1  0.83459451  0.16538542  0.14848278  1
  Ni  Ni15  1  0.16542145  0.33080663  0.85160592  1
  Ni  Ni16  1  0.16540368  0.83461359  0.85161020  1
  Ni  Ni17  1  0.16541539  0.33080862  0.64829617  1
  Ni  Ni18  1  0.66920590  0.83459516  0.85160739  1
  Ni  Ni19  1  0.33080715  0.16540839  0.35161154  1
  B  B20  1  0.66666713  0.33333134  0.25004584  1
  B  B21  1  0.33333055  0.66666870  0.74995128  1
  B  B22  1  -0.00000293  0.00000320  0.74995410  1
  B  B23  1  0.00000184  -0.00000401  0.25004670  1
