# generated using pymatgen
data_ZrTiCo4
_symmetry_space_group_name_H-M   'P 1'
_cell_length_a   4.82455621
_cell_length_b   4.82454035
_cell_length_c   4.82455235
_cell_angle_alpha   59.99992800
_cell_angle_beta   60.00003665
_cell_angle_gamma   59.99991801
_symmetry_Int_Tables_number   1
_chemical_formula_structural   ZrTiCo4
_chemical_formula_sum   'Zr1 Ti1 Co4'
_cell_volume   79.40629866
_cell_formula_units_Z   1
loop_
 _symmetry_equiv_pos_site_id
 _symmetry_equiv_pos_as_xyz
  1  'x, y, z'
loop_
 _atom_site_type_symbol
 _atom_site_label
 _atom_site_symmetry_multiplicity
 _atom_site_fract_x
 _atom_site_fract_y
 _atom_site_fract_z
 _atom_site_occupancy
  Zr  Zr0  1  -0.00000040  1.00000419  -0.00000240  1
  Ti  Ti1  1  0.24999878  0.24999788  0.25000167  1
  Co  Co2  1  0.62483085  0.62483043  0.12550655  1
  Co  Co3  1  0.62483118  0.12550559  0.62483161  1
  Co  Co4  1  0.12550672  0.62483048  0.62483140  1
  Co  Co5  1  0.62483085  0.62483043  0.62483116  1
