# generated using pymatgen
data_YGeIr
_symmetry_space_group_name_H-M   'P 1'
_cell_length_a   4.29022002
_cell_length_b   6.87558957
_cell_length_c   7.59743678
_cell_angle_alpha   90.00000000
_cell_angle_beta   90.00000000
_cell_angle_gamma   90.00000000
_symmetry_Int_Tables_number   1
_chemical_formula_structural   YGeIr
_chemical_formula_sum   'Y4 Ge4 Ir4'
_cell_volume   224.10761004
_cell_formula_units_Z   4
loop_
 _symmetry_equiv_pos_site_id
 _symmetry_equiv_pos_as_xyz
  1  'x, y, z'
loop_
 _atom_site_type_symbol
 _atom_site_label
 _atom_site_symmetry_multiplicity
 _atom_site_fract_x
 _atom_site_fract_y
 _atom_site_fract_z
 _atom_site_occupancy
  Y  Y0  1  0.25000000  0.00472261  0.30808195  1
  Y  Y1  1  0.25000000  0.50472261  0.19191805  1
  Y  Y2  1  0.75000000  0.99527739  0.69191805  1
  Y  Y3  1  0.75000000  0.49527739  0.80808195  1
  Ge  Ge4  1  0.25000000  0.29368293  0.60987195  1
  Ge  Ge5  1  0.25000000  0.79368293  0.89012805  1
  Ge  Ge6  1  0.75000000  0.70631707  0.39012805  1
  Ge  Ge7  1  0.75000000  0.20631707  0.10987195  1
  Ir  Ir8  1  0.25000000  0.15987098  0.93462691  1
  Ir  Ir9  1  0.25000000  0.65987098  0.56537309  1
  Ir  Ir10  1  0.75000000  0.84012902  0.06537309  1
  Ir  Ir11  1  0.75000000  0.34012902  0.43462691  1
