# generated using pymatgen
data_HfGeRu
_symmetry_space_group_name_H-M   'P 1'
_cell_length_a   6.70351828
_cell_length_b   6.70351828
_cell_length_c   3.73344939
_cell_angle_alpha   90.00000000
_cell_angle_beta   90.00000000
_cell_angle_gamma   119.99998916
_symmetry_Int_Tables_number   1
_chemical_formula_structural   HfGeRu
_chemical_formula_sum   'Hf3 Ge3 Ru3'
_cell_volume   145.29361983
_cell_formula_units_Z   3
loop_
 _symmetry_equiv_pos_site_id
 _symmetry_equiv_pos_as_xyz
  1  'x, y, z'
loop_
 _atom_site_type_symbol
 _atom_site_label
 _atom_site_symmetry_multiplicity
 _atom_site_fract_x
 _atom_site_fract_y
 _atom_site_fract_z
 _atom_site_occupancy
  Hf  Hf0  1  1.00000000  0.41585708  0.50000000  1
  Hf  Hf1  1  0.58414292  0.58414292  0.50000000  1
  Hf  Hf2  1  0.41585708  1.00000000  0.50000000  1
  Ge  Ge3  1  0.33333300  0.66666700  0.00000000  1
  Ge  Ge4  1  0.66666700  0.33333300  -0.00000000  1
  Ge  Ge5  1  -0.00000000  -0.00000000  0.50000000  1
  Ru  Ru6  1  1.00000000  0.75371754  0.00000000  1
  Ru  Ru7  1  0.24628246  0.24628246  0.00000000  1
  Ru  Ru8  1  0.75371754  1.00000000  0.00000000  1
