# generated using pymatgen
data_Sc(FeSn)6
_symmetry_space_group_name_H-M   'P 1'
_cell_length_a   5.36746028
_cell_length_b   5.36743882
_cell_length_c   8.96419742
_cell_angle_alpha   90.00000000
_cell_angle_beta   90.00000000
_cell_angle_gamma   119.99951985
_symmetry_Int_Tables_number   1
_chemical_formula_structural   Sc(FeSn)6
_chemical_formula_sum   'Sc1 Fe6 Sn6'
_cell_volume   223.65575975
_cell_formula_units_Z   1
loop_
 _symmetry_equiv_pos_site_id
 _symmetry_equiv_pos_as_xyz
  1  'x, y, z'
loop_
 _atom_site_type_symbol
 _atom_site_label
 _atom_site_symmetry_multiplicity
 _atom_site_fract_x
 _atom_site_fract_y
 _atom_site_fract_z
 _atom_site_occupancy
  Sc  Sc0  1  0.99999222  0.00000048  0.00000000  1
  Fe  Fe1  1  0.49997463  0.00000050  0.24677481  1
  Fe  Fe2  1  0.49998351  0.50000082  0.24677420  1
  Fe  Fe3  1  0.99998339  0.49999895  0.24677230  1
  Fe  Fe4  1  0.49997463  0.00000050  0.75322519  1
  Fe  Fe5  1  0.49998351  0.50000082  0.75322580  1
  Fe  Fe6  1  0.99998339  0.49999895  0.75322770  1
  Sn  Sn7  1  0.33332627  0.66666560  0.00000000  1
  Sn  Sn8  1  0.66665461  0.33333474  0.00000000  1
  Sn  Sn9  1  0.33332247  0.66666170  0.50000000  1
  Sn  Sn10  1  0.66665938  0.33333810  0.50000000  1
  Sn  Sn11  1  0.99998150  0.99999942  0.33223396  1
  Sn  Sn12  1  0.99998150  0.99999942  0.66776604  1
