# generated using pymatgen
data_Y2GeRh3
_symmetry_space_group_name_H-M   'P 1'
_cell_length_a   5.08800889
_cell_length_b   5.08800930
_cell_length_c   5.08800873
_cell_angle_alpha   66.46946719
_cell_angle_beta   66.46946249
_cell_angle_gamma   66.46946625
_symmetry_Int_Tables_number   1
_chemical_formula_structural   Y2GeRh3
_chemical_formula_sum   'Y2 Ge1 Rh3'
_cell_volume   106.12030936
_cell_formula_units_Z   1
loop_
 _symmetry_equiv_pos_site_id
 _symmetry_equiv_pos_as_xyz
  1  'x, y, z'
loop_
 _atom_site_type_symbol
 _atom_site_label
 _atom_site_symmetry_multiplicity
 _atom_site_fract_x
 _atom_site_fract_y
 _atom_site_fract_z
 _atom_site_occupancy
  Y  Y0  1  0.62934334  0.62934334  0.62934334  1
  Y  Y1  1  0.37065666  0.37065666  0.37065666  1
  Ge  Ge2  1  0.00000000  0.00000000  -0.00000000  1
  Rh  Rh3  1  0.00000000  0.00000000  0.50000000  1
  Rh  Rh4  1  0.00000000  0.50000000  -0.00000000  1
  Rh  Rh5  1  0.50000000  0.00000000  -0.00000000  1
