# generated using pymatgen
data_Th(NiP)2
_symmetry_space_group_name_H-M   'P 1'
_cell_length_a   3.90872448
_cell_length_b   8.29625077
_cell_length_c   9.75937942
_cell_angle_alpha   90.00000000
_cell_angle_beta   90.00000000
_cell_angle_gamma   90.00000000
_symmetry_Int_Tables_number   1
_chemical_formula_structural   Th(NiP)2
_chemical_formula_sum   'Th4 Ni8 P8'
_cell_volume   316.47479872
_cell_formula_units_Z   4
loop_
 _symmetry_equiv_pos_site_id
 _symmetry_equiv_pos_as_xyz
  1  'x, y, z'
loop_
 _atom_site_type_symbol
 _atom_site_label
 _atom_site_symmetry_multiplicity
 _atom_site_fract_x
 _atom_site_fract_y
 _atom_site_fract_z
 _atom_site_occupancy
  Th  Th0  1  0.25000000  0.26005521  0.66965820  1
  Th  Th1  1  0.75000000  0.73994479  0.33034180  1
  Th  Th2  1  0.25000000  0.76005521  0.83034180  1
  Th  Th3  1  0.75000000  0.23994479  0.16965820  1
  Ni  Ni4  1  0.75000000  0.08269697  0.45115223  1
  Ni  Ni5  1  0.25000000  0.91730303  0.54884777  1
  Ni  Ni6  1  0.75000000  0.58269697  0.04884777  1
  Ni  Ni7  1  0.25000000  0.41730303  0.95115223  1
  Ni  Ni8  1  0.25000000  0.95626442  0.12218616  1
  Ni  Ni9  1  0.75000000  0.04373558  0.87781384  1
  Ni  Ni10  1  0.25000000  0.45626442  0.37781384  1
  Ni  Ni11  1  0.75000000  0.54373558  0.62218616  1
  P  P12  1  0.25000000  0.14505765  0.94998270  1
  P  P13  1  0.75000000  0.85494235  0.05001730  1
  P  P14  1  0.25000000  0.64505765  0.55001730  1
  P  P15  1  0.75000000  0.35494235  0.44998270  1
  P  P16  1  0.25000000  0.52701124  0.16094599  1
  P  P17  1  0.75000000  0.47298876  0.83905401  1
  P  P18  1  0.25000000  0.02701124  0.33905401  1
  P  P19  1  0.75000000  0.97298876  0.66094599  1
