# generated using pymatgen
data_HgPb3
_symmetry_space_group_name_H-M   'P 1'
_cell_length_a   3.93986736
_cell_length_b   3.93986736
_cell_length_c   7.60846411
_cell_angle_alpha   90.00000000
_cell_angle_beta   90.00000000
_cell_angle_gamma   90.00000000
_symmetry_Int_Tables_number   1
_chemical_formula_structural   HgPb3
_chemical_formula_sum   'Hg1 Pb3'
_cell_volume   118.10280120
_cell_formula_units_Z   1
loop_
 _symmetry_equiv_pos_site_id
 _symmetry_equiv_pos_as_xyz
  1  'x, y, z'
loop_
 _atom_site_type_symbol
 _atom_site_label
 _atom_site_symmetry_multiplicity
 _atom_site_fract_x
 _atom_site_fract_y
 _atom_site_fract_z
 _atom_site_occupancy
  Hg  Hg0  1  -0.00000000  0.00000000  -0.00000000  1
  Pb  Pb1  1  0.50000000  0.50000000  0.23654490  1
  Pb  Pb2  1  0.50000000  0.50000000  0.76345510  1
  Pb  Pb3  1  -0.00000000  0.00000000  0.50000000  1
