# generated using pymatgen
data_CaCdPd
_symmetry_space_group_name_H-M   'P 1'
_cell_length_a   4.32871735
_cell_length_b   7.28903447
_cell_length_c   8.53861326
_cell_angle_alpha   90.00055909
_cell_angle_beta   90.00000000
_cell_angle_gamma   90.00000000
_symmetry_Int_Tables_number   1
_chemical_formula_structural   CaCdPd
_chemical_formula_sum   'Ca4 Cd4 Pd4'
_cell_volume   269.41177692
_cell_formula_units_Z   4
loop_
 _symmetry_equiv_pos_site_id
 _symmetry_equiv_pos_as_xyz
  1  'x, y, z'
loop_
 _atom_site_type_symbol
 _atom_site_label
 _atom_site_symmetry_multiplicity
 _atom_site_fract_x
 _atom_site_fract_y
 _atom_site_fract_z
 _atom_site_occupancy
  Ca  Ca0  1  0.25000000  0.03417398  0.32103399  1
  Ca  Ca1  1  0.25000000  0.53417325  0.17896646  1
  Ca  Ca2  1  0.75000000  0.96583594  0.67898007  1
  Ca  Ca3  1  0.75000000  0.46583888  0.82101917  1
  Cd  Cd4  1  0.25000000  0.14343433  0.93819959  1
  Cd  Cd5  1  0.25000000  0.64343203  0.56180081  1
  Cd  Cd6  1  0.75000000  0.85657240  0.06176374  1
  Cd  Cd7  1  0.75000000  0.35656931  0.43823652  1
  Pd  Pd8  1  0.25000000  0.26142795  0.62859982  1
  Pd  Pd9  1  0.25000000  0.76142752  0.87139801  1
  Pd  Pd10  1  0.75000000  0.73855810  0.37142783  1
  Pd  Pd11  1  0.75000000  0.23855532  0.12857299  1
