# generated using pymatgen
data_ThGaPt
_symmetry_space_group_name_H-M   'P 1'
_cell_length_a   7.33556981
_cell_length_b   7.33556981
_cell_length_c   4.10371957
_cell_angle_alpha   90.00000000
_cell_angle_beta   90.00000000
_cell_angle_gamma   120.00000926
_symmetry_Int_Tables_number   1
_chemical_formula_structural   ThGaPt
_chemical_formula_sum   'Th3 Ga3 Pt3'
_cell_volume   191.23878467
_cell_formula_units_Z   3
loop_
 _symmetry_equiv_pos_site_id
 _symmetry_equiv_pos_as_xyz
  1  'x, y, z'
loop_
 _atom_site_type_symbol
 _atom_site_label
 _atom_site_symmetry_multiplicity
 _atom_site_fract_x
 _atom_site_fract_y
 _atom_site_fract_z
 _atom_site_occupancy
  Th  Th0  1  0.41501464  0.41501464  0.50000000  1
  Th  Th1  1  0.58498536  0.00000000  0.50000000  1
  Th  Th2  1  0.00000000  0.58498536  0.50000000  1
  Ga  Ga3  1  0.76063684  0.76063684  0.00000000  1
  Ga  Ga4  1  0.23936316  0.00000000  0.00000000  1
  Ga  Ga5  1  0.00000000  0.23936316  -0.00000000  1
  Pt  Pt6  1  0.66666700  0.33333300  -0.00000000  1
  Pt  Pt7  1  0.33333300  0.66666700  -0.00000000  1
  Pt  Pt8  1  0.00000000  -0.00000000  0.50000000  1
