# generated using pymatgen
data_Ce(Sb3Os)4
_symmetry_space_group_name_H-M   'P 1'
_cell_length_a   8.10389726
_cell_length_b   8.11122002
_cell_length_c   8.10391377
_cell_angle_alpha   109.48948929
_cell_angle_beta   109.45296928
_cell_angle_gamma   109.48954834
_symmetry_Int_Tables_number   1
_chemical_formula_structural   Ce(Sb3Os)4
_chemical_formula_sum   'Ce1 Sb12 Os4'
_cell_volume   409.97240036
_cell_formula_units_Z   1
loop_
 _symmetry_equiv_pos_site_id
 _symmetry_equiv_pos_as_xyz
  1  'x, y, z'
loop_
 _atom_site_type_symbol
 _atom_site_label
 _atom_site_symmetry_multiplicity
 _atom_site_fract_x
 _atom_site_fract_y
 _atom_site_fract_z
 _atom_site_occupancy
  Ce  Ce0  1  -0.00000000  -0.00000000  0.00000000  1
  Sb  Sb1  1  0.33950155  0.18227365  0.84299109  1
  Sb  Sb2  1  0.66049845  0.81772635  0.15700891  1
  Sb  Sb3  1  0.65988824  0.50325509  0.84298150  1
  Sb  Sb4  1  0.34011176  0.49674491  0.15701850  1
  Sb  Sb5  1  0.18309226  0.84336585  0.34011276  1
  Sb  Sb6  1  0.81690774  0.15663415  0.65988724  1
  Sb  Sb7  1  0.50348953  0.84277309  0.66049945  1
  Sb  Sb8  1  0.49651047  0.15722691  0.33950055  1
  Sb  Sb9  1  0.84297950  0.33972541  0.18309226  1
  Sb  Sb10  1  0.15702050  0.66027459  0.81690774  1
  Sb  Sb11  1  0.84299209  0.66071844  0.50349053  1
  Sb  Sb12  1  0.15700791  0.33928156  0.49650947  1
  Os  Os13  1  -0.00000000  -0.00000000  0.50000000  1
  Os  Os14  1  0.50000000  -0.00000000  0.00000000  1
  Os  Os15  1  -0.00000000  0.50000000  0.00000000  1
  Os  Os16  1  0.50000000  0.50000000  0.50000000  1
