# generated using pymatgen
data_TaBRu
_symmetry_space_group_name_H-M   'P 1'
_cell_length_a   3.14789344
_cell_length_b   6.31432576
_cell_length_c   10.82234736
_cell_angle_alpha   89.99996642
_cell_angle_beta   90.00000000
_cell_angle_gamma   90.00000000
_symmetry_Int_Tables_number   1
_chemical_formula_structural   TaBRu
_chemical_formula_sum   'Ta6 B6 Ru6'
_cell_volume   215.11390065
_cell_formula_units_Z   6
loop_
 _symmetry_equiv_pos_site_id
 _symmetry_equiv_pos_as_xyz
  1  'x, y, z'
loop_
 _atom_site_type_symbol
 _atom_site_label
 _atom_site_symmetry_multiplicity
 _atom_site_fract_x
 _atom_site_fract_y
 _atom_site_fract_z
 _atom_site_occupancy
  Ta  Ta0  1  -0.00000000  0.22197803  0.95642779  1
  Ta  Ta1  1  0.00000000  0.77802791  0.04347538  1
  Ta  Ta2  1  -0.00000000  0.22197603  0.54357321  1
  Ta  Ta3  1  -0.00000000  0.77803091  0.45652362  1
  Ta  Ta4  1  -0.00000000  0.14404596  0.24999900  1
  Ta  Ta5  1  -0.00000000  0.85598542  0.75000000  1
  B  B6  1  0.50000000  0.04987177  0.08387029  1
  B  B7  1  0.50000000  0.95014386  0.91609035  1
  B  B8  1  0.50000000  0.04987077  0.41613171  1
  B  B9  1  0.50000000  0.95014386  0.58390865  1
  B  B10  1  -0.00000000  0.55100110  0.25000100  1
  B  B11  1  0.00000000  0.44898903  0.74999900  1
  Ru  Ru12  1  0.50000000  0.42648529  0.12503384  1
  Ru  Ru13  1  0.50000000  0.57347732  0.87487015  1
  Ru  Ru14  1  0.50000000  0.42648429  0.37496116  1
  Ru  Ru15  1  0.50000000  0.57347832  0.62513485  1
  Ru  Ru16  1  0.50000000  0.79842142  0.24999800  1
  Ru  Ru17  1  0.50000000  0.20158969  0.75000200  1
