# generated using pymatgen
data_TbZnSn
_symmetry_space_group_name_H-M   'P 1'
_cell_length_a   4.46089044
_cell_length_b   4.46088946
_cell_length_c   16.12884132
_cell_angle_alpha   90.00000000
_cell_angle_beta   90.00000000
_cell_angle_gamma   119.99999986
_symmetry_Int_Tables_number   1
_chemical_formula_structural   TbZnSn
_chemical_formula_sum   'Tb4 Zn4 Sn4'
_cell_volume   277.95649080
_cell_formula_units_Z   4
loop_
 _symmetry_equiv_pos_site_id
 _symmetry_equiv_pos_as_xyz
  1  'x, y, z'
loop_
 _atom_site_type_symbol
 _atom_site_label
 _atom_site_symmetry_multiplicity
 _atom_site_fract_x
 _atom_site_fract_y
 _atom_site_fract_z
 _atom_site_occupancy
  Tb  Tb0  1  0.00000000  0.00000000  0.75000000  1
  Tb  Tb1  1  0.00000000  0.00000000  0.25000000  1
  Tb  Tb2  1  0.00000000  0.00000000  0.50000000  1
  Tb  Tb3  1  0.00000000  0.00000000  0.00000000  1
  Zn  Zn4  1  0.66666700  0.33333300  0.83879774  1
  Zn  Zn5  1  0.66666700  0.33333300  0.66120226  1
  Zn  Zn6  1  0.33333300  0.66666700  0.16120226  1
  Zn  Zn7  1  0.33333300  0.66666700  0.33879774  1
  Sn  Sn8  1  0.66666700  0.33333300  0.11440924  1
  Sn  Sn9  1  0.66666700  0.33333300  0.38559076  1
  Sn  Sn10  1  0.33333300  0.66666700  0.88559076  1
  Sn  Sn11  1  0.33333300  0.66666700  0.61440924  1
