# generated using pymatgen
data_Ba(P2Au)2
_symmetry_space_group_name_H-M   'P 1'
_cell_length_a   5.56323352
_cell_length_b   5.56323352
_cell_length_c   11.66659227
_cell_angle_alpha   99.28422859
_cell_angle_beta   99.28422859
_cell_angle_gamma   108.86529912
_symmetry_Int_Tables_number   1
_chemical_formula_structural   Ba(P2Au)2
_chemical_formula_sum   'Ba2 P8 Au4'
_cell_volume   328.27351927
_cell_formula_units_Z   2
loop_
 _symmetry_equiv_pos_site_id
 _symmetry_equiv_pos_as_xyz
  1  'x, y, z'
loop_
 _atom_site_type_symbol
 _atom_site_label
 _atom_site_symmetry_multiplicity
 _atom_site_fract_x
 _atom_site_fract_y
 _atom_site_fract_z
 _atom_site_occupancy
  Ba  Ba0  1  0.37500000  0.12500000  0.25000000  1
  Ba  Ba1  1  0.62500000  0.87500000  0.75000000  1
  P  P2  1  0.09862136  0.12197220  0.59097771  1
  P  P3  1  0.03099548  0.50764365  0.90902229  1
  P  P4  1  0.37802780  0.40137864  0.90902229  1
  P  P5  1  0.99235635  0.46900452  0.59097771  1
  P  P6  1  0.90137864  0.87802780  0.40902229  1
  P  P7  1  0.96900452  0.49235635  0.09097771  1
  P  P8  1  0.62197220  0.59862136  0.09097771  1
  P  P9  1  0.00764365  0.53099548  0.40902229  1
  Au  Au10  1  0.53843740  0.28843740  0.57687481  1
  Au  Au11  1  0.21156260  0.96156260  0.92312519  1
  Au  Au12  1  0.46156260  0.71156260  0.42312519  1
  Au  Au13  1  0.78843740  0.03843740  0.07687481  1
