# generated using pymatgen
data_H2CO3
_symmetry_space_group_name_H-M   'P 1'
_cell_length_a   4.29641245
_cell_length_b   4.29641245
_cell_length_c   6.55009852
_cell_angle_alpha   90.00000000
_cell_angle_beta   90.00000000
_cell_angle_gamma   86.09151534
_symmetry_Int_Tables_number   1
_chemical_formula_structural   H2CO3
_chemical_formula_sum   'H4 C2 O6'
_cell_volume   120.62810497
_cell_formula_units_Z   2
loop_
 _symmetry_equiv_pos_site_id
 _symmetry_equiv_pos_as_xyz
  1  'x, y, z'
loop_
 _atom_site_type_symbol
 _atom_site_label
 _atom_site_symmetry_multiplicity
 _atom_site_fract_x
 _atom_site_fract_y
 _atom_site_fract_z
 _atom_site_occupancy
  H  H0  1  0.67608221  0.67608221  0.54181878  1
  H  H1  1  0.67608221  0.67608221  0.95818122  1
  H  H2  1  0.32391779  0.32391779  0.04181878  1
  H  H3  1  0.32391779  0.32391779  0.45818122  1
  C  C4  1  0.65333655  0.65333655  0.25000000  1
  C  C5  1  0.34666345  0.34666345  0.75000000  1
  O  O6  1  0.45320305  0.45320305  0.25000000  1
  O  O7  1  0.54679695  0.54679695  0.75000000  1
  O  O8  1  0.76800343  0.76800343  0.41566160  1
  O  O9  1  0.76800343  0.76800343  0.08433840  1
  O  O10  1  0.23199657  0.23199657  0.91566160  1
  O  O11  1  0.23199657  0.23199657  0.58433840  1
