# generated using pymatgen
data_LaSbPd
_symmetry_space_group_name_H-M   'P 1'
_cell_length_a   4.62465602
_cell_length_b   4.62465602
_cell_length_c   8.24875354
_cell_angle_alpha   90.00000000
_cell_angle_beta   90.00000000
_cell_angle_gamma   119.99999536
_symmetry_Int_Tables_number   1
_chemical_formula_structural   LaSbPd
_chemical_formula_sum   'La2 Sb2 Pd2'
_cell_volume   152.78399094
_cell_formula_units_Z   2
loop_
 _symmetry_equiv_pos_site_id
 _symmetry_equiv_pos_as_xyz
  1  'x, y, z'
loop_
 _atom_site_type_symbol
 _atom_site_label
 _atom_site_symmetry_multiplicity
 _atom_site_fract_x
 _atom_site_fract_y
 _atom_site_fract_z
 _atom_site_occupancy
  La  La0  1  -0.00000000  0.00000000  0.99760266  1
  La  La1  1  -0.00000000  0.00000000  0.49760266  1
  Sb  Sb2  1  0.66666700  0.33333300  0.73727710  1
  Sb  Sb3  1  0.33333300  0.66666700  0.23727710  1
  Pd  Pd4  1  0.66666700  0.33333300  0.27411924  1
  Pd  Pd5  1  0.33333300  0.66666700  0.77411924  1
