# generated using pymatgen
data_Eu2GeS4
_symmetry_space_group_name_H-M   'P 1'
_cell_length_a   6.79498213
_cell_length_b   6.65200070
_cell_length_c   8.03225588
_cell_angle_alpha   72.03378261
_cell_angle_beta   90.00009835
_cell_angle_gamma   89.99994230
_symmetry_Int_Tables_number   1
_chemical_formula_structural   Eu2GeS4
_chemical_formula_sum   'Eu4 Ge2 S8'
_cell_volume   345.35646003
_cell_formula_units_Z   2
loop_
 _symmetry_equiv_pos_site_id
 _symmetry_equiv_pos_as_xyz
  1  'x, y, z'
loop_
 _atom_site_type_symbol
 _atom_site_label
 _atom_site_symmetry_multiplicity
 _atom_site_fract_x
 _atom_site_fract_y
 _atom_site_fract_z
 _atom_site_occupancy
  Eu  Eu0  1  0.73682371  0.28379725  0.05232621  1
  Eu  Eu1  1  0.23682257  0.71620585  0.94767126  1
  Eu  Eu2  1  0.72695983  0.23975086  0.56504267  1
  Eu  Eu3  1  0.22695987  0.76024475  0.43495746  1
  Ge  Ge4  1  0.76791232  0.73460126  0.19644578  1
  Ge  Ge5  1  0.26791182  0.26539721  0.80355578  1
  S  S6  1  0.81343198  0.91529906  0.91781551  1
  S  S7  1  0.31343113  0.08470493  0.08218719  1
  S  S8  1  0.80088748  0.92950481  0.37437417  1
  S  S9  1  0.30088595  0.07049554  0.62562276  1
  S  S10  1  0.50226471  0.53077659  0.25102618  1
  S  S11  1  0.00226372  0.46922248  0.74897404  1
  S  S12  1  0.50232223  0.51083109  0.73597106  1
  S  S13  1  0.00232269  0.48916732  0.26402894  1
