# generated using pymatgen
data_ErAlPd
_symmetry_space_group_name_H-M   'P 1'
_cell_length_a   4.40212268
_cell_length_b   6.82965651
_cell_length_c   7.68973138
_cell_angle_alpha   90.00000000
_cell_angle_beta   90.00000000
_cell_angle_gamma   90.00000000
_symmetry_Int_Tables_number   1
_chemical_formula_structural   ErAlPd
_chemical_formula_sum   'Er4 Al4 Pd4'
_cell_volume   231.19166489
_cell_formula_units_Z   4
loop_
 _symmetry_equiv_pos_site_id
 _symmetry_equiv_pos_as_xyz
  1  'x, y, z'
loop_
 _atom_site_type_symbol
 _atom_site_label
 _atom_site_symmetry_multiplicity
 _atom_site_fract_x
 _atom_site_fract_y
 _atom_site_fract_z
 _atom_site_occupancy
  Er  Er0  1  0.75000000  0.46816795  0.18001431  1
  Er  Er1  1  0.75000000  0.96816795  0.31998569  1
  Er  Er2  1  0.25000000  0.53183205  0.81998569  1
  Er  Er3  1  0.25000000  0.03183205  0.68001431  1
  Al  Al4  1  0.75000000  0.35660197  0.56172446  1
  Al  Al5  1  0.75000000  0.85660197  0.93827554  1
  Al  Al6  1  0.25000000  0.64339803  0.43827554  1
  Al  Al7  1  0.25000000  0.14339803  0.06172446  1
  Pd  Pd8  1  0.75000000  0.22917815  0.88084994  1
  Pd  Pd9  1  0.75000000  0.72917815  0.61915006  1
  Pd  Pd10  1  0.25000000  0.77082185  0.11915006  1
  Pd  Pd11  1  0.25000000  0.27082185  0.38084994  1
