# generated using pymatgen
data_Y2Al3Fe
_symmetry_space_group_name_H-M   'P 1'
_cell_length_a   5.42438112
_cell_length_b   5.42438112
_cell_length_c   5.42438133
_cell_angle_alpha   61.39990502
_cell_angle_beta   61.39990502
_cell_angle_gamma   61.39991727
_symmetry_Int_Tables_number   1
_chemical_formula_structural   Y2Al3Fe
_chemical_formula_sum   'Y2 Al3 Fe1'
_cell_volume   116.40784441
_cell_formula_units_Z   1
loop_
 _symmetry_equiv_pos_site_id
 _symmetry_equiv_pos_as_xyz
  1  'x, y, z'
loop_
 _atom_site_type_symbol
 _atom_site_label
 _atom_site_symmetry_multiplicity
 _atom_site_fract_x
 _atom_site_fract_y
 _atom_site_fract_z
 _atom_site_occupancy
  Y  Y0  1  0.62569055  0.62569055  0.62569055  1
  Y  Y1  1  0.37430945  0.37430945  0.37430945  1
  Al  Al2  1  0.00000000  0.50000000  -0.00000000  1
  Al  Al3  1  0.50000000  0.00000000  -0.00000000  1
  Al  Al4  1  0.00000000  0.00000000  0.50000000  1
  Fe  Fe5  1  0.00000000  0.00000000  -0.00000000  1
