# generated using pymatgen
data_Rb2UF6
_symmetry_space_group_name_H-M   'P 1'
_cell_length_a   6.99127300
_cell_length_b   6.99127293
_cell_length_c   7.51664684
_cell_angle_alpha   90.00000000
_cell_angle_beta   90.00000000
_cell_angle_gamma   120.57369155
_symmetry_Int_Tables_number   1
_chemical_formula_structural   Rb2UF6
_chemical_formula_sum   'Rb4 U2 F12'
_cell_volume   316.32065000
_cell_formula_units_Z   2
loop_
 _symmetry_equiv_pos_site_id
 _symmetry_equiv_pos_as_xyz
  1  'x, y, z'
loop_
 _atom_site_type_symbol
 _atom_site_label
 _atom_site_symmetry_multiplicity
 _atom_site_fract_x
 _atom_site_fract_y
 _atom_site_fract_z
 _atom_site_occupancy
  Rb  Rb0  1  0.34307181  0.65692819  0.50133173  1
  Rb  Rb1  1  0.65692819  0.34307181  0.00133173  1
  Rb  Rb2  1  0.65692819  0.34307181  0.49866827  1
  Rb  Rb3  1  0.34307181  0.65692819  0.99866827  1
  U  U4  1  0.94790201  0.05209799  0.25000000  1
  U  U5  1  0.05209799  0.94790201  0.75000000  1
  F  F6  1  0.10154632  0.89845368  0.04202021  1
  F  F7  1  0.89845368  0.10154632  0.54202021  1
  F  F8  1  0.89845368  0.10154632  0.95797979  1
  F  F9  1  0.10154632  0.89845368  0.45797979  1
  F  F10  1  0.00505662  0.60166079  0.75000000  1
  F  F11  1  0.99494338  0.39833921  0.25000000  1
  F  F12  1  0.29069009  0.30658511  0.75000000  1
  F  F13  1  0.70930991  0.69341489  0.25000000  1
  F  F14  1  0.30658511  0.29069009  0.25000000  1
  F  F15  1  0.69341489  0.70930991  0.75000000  1
  F  F16  1  0.39833921  0.99494338  0.75000000  1
  F  F17  1  0.60166079  0.00505662  0.25000000  1
