# generated using pymatgen
data_Ti(CrS2)2
_symmetry_space_group_name_H-M   'P 1'
_cell_length_a   6.78083522
_cell_length_b   6.78083522
_cell_length_c   6.14926418
_cell_angle_alpha   62.59615125
_cell_angle_beta   62.59615125
_cell_angle_gamma   29.65039865
_symmetry_Int_Tables_number   1
_chemical_formula_structural   Ti(CrS2)2
_chemical_formula_sum   'Ti1 Cr2 S4'
_cell_volume   123.00334859
_cell_formula_units_Z   1
loop_
 _symmetry_equiv_pos_site_id
 _symmetry_equiv_pos_as_xyz
  1  'x, y, z'
loop_
 _atom_site_type_symbol
 _atom_site_label
 _atom_site_symmetry_multiplicity
 _atom_site_fract_x
 _atom_site_fract_y
 _atom_site_fract_z
 _atom_site_occupancy
  Ti  Ti0  1  0.00000000  0.00000000  -0.00000000  1
  Cr  Cr1  1  0.73607611  0.73607611  0.24964579  1
  Cr  Cr2  1  0.26392389  0.26392389  0.75035421  1
  S  S3  1  0.63508678  0.63508678  0.70487916  1
  S  S4  1  0.36491322  0.36491322  0.29512084  1
  S  S5  1  0.87075597  0.87075597  0.81108479  1
  S  S6  1  0.12924403  0.12924403  0.18891521  1
