# generated using pymatgen
data_CaZn3
_symmetry_space_group_name_H-M   'P 1'
_cell_length_a   6.48808812
_cell_length_b   6.48808812
_cell_length_c   4.33793601
_cell_angle_alpha   90.00000000
_cell_angle_beta   90.00000000
_cell_angle_gamma   120.00000227
_symmetry_Int_Tables_number   1
_chemical_formula_structural   CaZn3
_chemical_formula_sum   'Ca2 Zn6'
_cell_volume   158.14200581
_cell_formula_units_Z   2
loop_
 _symmetry_equiv_pos_site_id
 _symmetry_equiv_pos_as_xyz
  1  'x, y, z'
loop_
 _atom_site_type_symbol
 _atom_site_label
 _atom_site_symmetry_multiplicity
 _atom_site_fract_x
 _atom_site_fract_y
 _atom_site_fract_z
 _atom_site_occupancy
  Ca  Ca0  1  0.66666700  0.33333300  0.25000000  1
  Ca  Ca1  1  0.33333300  0.66666700  0.75000000  1
  Zn  Zn2  1  0.13827502  0.27655004  0.25000000  1
  Zn  Zn3  1  0.72344996  0.86172498  0.25000000  1
  Zn  Zn4  1  0.13827502  0.86172498  0.25000000  1
  Zn  Zn5  1  0.27655004  0.13827502  0.75000000  1
  Zn  Zn6  1  0.86172498  0.13827502  0.75000000  1
  Zn  Zn7  1  0.86172498  0.72344996  0.75000000  1
