# generated using pymatgen
data_Cs4FeO3
_symmetry_space_group_name_H-M   'P 1'
_cell_length_a   7.53720955
_cell_length_b   12.01049229
_cell_length_c   10.24687852
_cell_angle_alpha   107.89881454
_cell_angle_beta   102.76036698
_cell_angle_gamma   90.52501771
_symmetry_Int_Tables_number   1
_chemical_formula_structural   Cs4FeO3
_chemical_formula_sum   'Cs16 Fe4 O12'
_cell_volume   857.93702063
_cell_formula_units_Z   4
loop_
 _symmetry_equiv_pos_site_id
 _symmetry_equiv_pos_as_xyz
  1  'x, y, z'
loop_
 _atom_site_type_symbol
 _atom_site_label
 _atom_site_symmetry_multiplicity
 _atom_site_fract_x
 _atom_site_fract_y
 _atom_site_fract_z
 _atom_site_occupancy
  Cs  Cs0  1  0.41383823  0.16023799  0.59582677  1
  Cs  Cs1  1  0.91387672  0.66024302  0.59582090  1
  Cs  Cs2  1  0.08616279  0.33976789  0.40417201  1
  Cs  Cs3  1  0.58611196  0.83974542  0.40418083  1
  Cs  Cs4  1  0.49368247  0.29039959  0.98975904  1
  Cs  Cs5  1  0.99366054  0.79037561  0.98973981  1
  Cs  Cs6  1  0.00630759  0.20960907  0.01024392  1
  Cs  Cs7  1  0.50636403  0.70963093  0.01027246  1
  Cs  Cs8  1  0.61581428  0.96701075  0.85256549  1
  Cs  Cs9  1  0.11589329  0.46700244  0.85256800  1
  Cs  Cs10  1  0.88420817  0.53300207  0.14743889  1
  Cs  Cs11  1  0.38408425  0.03299134  0.14741911  1
  Cs  Cs12  1  0.07561440  0.86353238  0.37832024  1
  Cs  Cs13  1  0.57569134  0.36350274  0.37833958  1
  Cs  Cs14  1  0.42437453  0.63647583  0.62168442  1
  Cs  Cs15  1  0.92431509  0.13648768  0.62165808  1
  Fe  Fe16  1  0.64184788  0.43651819  0.76388627  1
  Fe  Fe17  1  0.85812193  0.06348487  0.23612096  1
  Fe  Fe18  1  0.14181431  0.93652809  0.76388847  1
  Fe  Fe19  1  0.35819775  0.56346453  0.23610340  1
  O  O20  1  0.10584737  0.09124731  0.33032638  1
  O  O21  1  0.60595662  0.59120877  0.33029188  1
  O  O22  1  0.39414781  0.40877406  0.66968509  1
  O  O23  1  0.89408514  0.90877259  0.66968152  1
  O  O24  1  0.26100143  0.08260464  0.79612871  1
  O  O25  1  0.76105425  0.58257153  0.79611299  1
  O  O26  1  0.23902789  0.41737992  0.20387342  1
  O  O27  1  0.73891563  0.91743199  0.20392702  1
  O  O28  1  0.26746458  0.82299521  0.82571591  1
  O  O29  1  0.76749081  0.32299400  0.82569384  1
  O  O30  1  0.23255366  0.67700790  0.17428172  1
  O  O31  1  0.73247527  0.17700165  0.17427386  1
