# generated using pymatgen
data_DyCdNi4
_symmetry_space_group_name_H-M   'P 1'
_cell_length_a   4.91965601
_cell_length_b   4.91966473
_cell_length_c   4.91966207
_cell_angle_alpha   60.00440090
_cell_angle_beta   60.00434847
_cell_angle_gamma   60.00436254
_symmetry_Int_Tables_number   1
_chemical_formula_structural   DyCdNi4
_chemical_formula_sum   'Dy1 Cd1 Ni4'
_cell_volume   84.20416047
_cell_formula_units_Z   1
loop_
 _symmetry_equiv_pos_site_id
 _symmetry_equiv_pos_as_xyz
  1  'x, y, z'
loop_
 _atom_site_type_symbol
 _atom_site_label
 _atom_site_symmetry_multiplicity
 _atom_site_fract_x
 _atom_site_fract_y
 _atom_site_fract_z
 _atom_site_occupancy
  Dy  Dy0  1  0.25000136  0.25000213  0.25000180  1
  Cd  Cd1  1  0.00000535  1.00000125  1.00000433  1
  Ni  Ni2  1  0.62616930  0.62616966  0.12148648  1
  Ni  Ni3  1  0.62616941  0.12148717  0.62616902  1
  Ni  Ni4  1  0.12148695  0.62616939  0.62616861  1
  Ni  Ni5  1  0.62616963  0.62617040  0.62616975  1
