# generated using pymatgen
data_CeZnPd
_symmetry_space_group_name_H-M   'P 1'
_cell_length_a   4.41961385
_cell_length_b   7.04472163
_cell_length_c   8.02584176
_cell_angle_alpha   90.00000000
_cell_angle_beta   90.00000000
_cell_angle_gamma   90.00000000
_symmetry_Int_Tables_number   1
_chemical_formula_structural   CeZnPd
_chemical_formula_sum   'Ce4 Zn4 Pd4'
_cell_volume   249.88417617
_cell_formula_units_Z   4
loop_
 _symmetry_equiv_pos_site_id
 _symmetry_equiv_pos_as_xyz
  1  'x, y, z'
loop_
 _atom_site_type_symbol
 _atom_site_label
 _atom_site_symmetry_multiplicity
 _atom_site_fract_x
 _atom_site_fract_y
 _atom_site_fract_z
 _atom_site_occupancy
  Ce  Ce0  1  0.25000000  0.53344664  0.80480197  1
  Ce  Ce1  1  0.75000000  0.46655336  0.19519803  1
  Ce  Ce2  1  0.25000000  0.03344664  0.69519803  1
  Ce  Ce3  1  0.75000000  0.96655336  0.30480197  1
  Zn  Zn4  1  0.25000000  0.15201147  0.06904147  1
  Zn  Zn5  1  0.75000000  0.84798853  0.93095853  1
  Zn  Zn6  1  0.25000000  0.65201147  0.43095853  1
  Zn  Zn7  1  0.75000000  0.34798853  0.56904147  1
  Pd  Pd8  1  0.75000000  0.73212269  0.60712568  1
  Pd  Pd9  1  0.25000000  0.26787731  0.39287432  1
  Pd  Pd10  1  0.75000000  0.23212269  0.89287432  1
  Pd  Pd11  1  0.25000000  0.76787731  0.10712568  1
