# generated using pymatgen
data_CaAlGa
_symmetry_space_group_name_H-M   'P 1'
_cell_length_a   5.74214066
_cell_length_b   5.74214066
_cell_length_c   7.38494494
_cell_angle_alpha   51.81417231
_cell_angle_beta   51.81417231
_cell_angle_gamma   46.05636261
_symmetry_Int_Tables_number   1
_chemical_formula_structural   CaAlGa
_chemical_formula_sum   'Ca2 Al2 Ga2'
_cell_volume   129.87711834
_cell_formula_units_Z   2
loop_
 _symmetry_equiv_pos_site_id
 _symmetry_equiv_pos_as_xyz
  1  'x, y, z'
loop_
 _atom_site_type_symbol
 _atom_site_label
 _atom_site_symmetry_multiplicity
 _atom_site_fract_x
 _atom_site_fract_y
 _atom_site_fract_z
 _atom_site_occupancy
  Ca  Ca0  1  0.54993176  0.54993176  0.19593158  1
  Ca  Ca1  1  0.45006824  0.45006824  0.80406842  1
  Al  Al2  1  0.16280975  0.16280975  0.40690678  1
  Al  Al3  1  0.83719025  0.83719025  0.59309322  1
  Ga  Ga4  1  0.83954353  0.83954353  0.21691033  1
  Ga  Ga5  1  0.16045647  0.16045647  0.78308967  1
