# generated using pymatgen
data_K3Sm(PO4)2
_symmetry_space_group_name_H-M   'P 1'
_cell_length_a   5.63126931
_cell_length_b   7.39896890
_cell_length_c   9.46807822
_cell_angle_alpha   89.24689369
_cell_angle_beta   90.00000000
_cell_angle_gamma   90.00000000
_symmetry_Int_Tables_number   1
_chemical_formula_structural   K3Sm(PO4)2
_chemical_formula_sum   'K6 Sm2 P4 O16'
_cell_volume   394.45895429
_cell_formula_units_Z   2
loop_
 _symmetry_equiv_pos_site_id
 _symmetry_equiv_pos_as_xyz
  1  'x, y, z'
loop_
 _atom_site_type_symbol
 _atom_site_label
 _atom_site_symmetry_multiplicity
 _atom_site_fract_x
 _atom_site_fract_y
 _atom_site_fract_z
 _atom_site_occupancy
  K  K0  1  0.25000000  0.49267676  0.19082822  1
  K  K1  1  0.75000000  0.50732324  0.80917178  1
  K  K2  1  0.25000000  0.63578150  0.59192463  1
  K  K3  1  0.75000000  0.36421850  0.40807537  1
  K  K4  1  0.75000000  0.79817036  0.08251633  1
  K  K5  1  0.25000000  0.20182964  0.91748367  1
  Sm  Sm6  1  0.25000000  0.99332544  0.29118027  1
  Sm  Sm7  1  0.75000000  0.00667456  0.70881973  1
  P  P8  1  0.75000000  0.80754952  0.42615915  1
  P  P9  1  0.75000000  0.23313669  0.08725935  1
  P  P10  1  0.25000000  0.76686331  0.91274065  1
  P  P11  1  0.25000000  0.19245048  0.57384085  1
  O  O12  1  0.75000000  0.43783809  0.10145868  1
  O  O13  1  0.47285220  0.84632640  0.83922843  1
  O  O14  1  0.97285220  0.15367360  0.16077157  1
  O  O15  1  0.52714780  0.15367360  0.16077157  1
  O  O16  1  0.75000000  0.71706368  0.57426566  1
  O  O17  1  0.25000000  0.28293632  0.42573434  1
  O  O18  1  0.75000000  0.01265730  0.45011678  1
  O  O19  1  0.25000000  0.98734270  0.54988322  1
  O  O20  1  0.02652085  0.24829616  0.65656997  1
  O  O21  1  0.52652085  0.75170384  0.34343003  1
  O  O22  1  0.97347915  0.75170384  0.34343003  1
  O  O23  1  0.47347915  0.24829616  0.65656997  1
  O  O24  1  0.25000000  0.82335270  0.06911471  1
  O  O25  1  0.75000000  0.17664730  0.93088529  1
  O  O26  1  0.25000000  0.56216191  0.89854132  1
  O  O27  1  0.02714780  0.84632640  0.83922843  1
