# generated using pymatgen
data_DyCdGa
_symmetry_space_group_name_H-M   'P 1'
_cell_length_a   7.19793078
_cell_length_b   7.19793078
_cell_length_c   4.37870290
_cell_angle_alpha   90.00000000
_cell_angle_beta   90.00000000
_cell_angle_gamma   120.00000093
_symmetry_Int_Tables_number   1
_chemical_formula_structural   DyCdGa
_chemical_formula_sum   'Dy3 Cd3 Ga3'
_cell_volume   196.46782545
_cell_formula_units_Z   3
loop_
 _symmetry_equiv_pos_site_id
 _symmetry_equiv_pos_as_xyz
  1  'x, y, z'
loop_
 _atom_site_type_symbol
 _atom_site_label
 _atom_site_symmetry_multiplicity
 _atom_site_fract_x
 _atom_site_fract_y
 _atom_site_fract_z
 _atom_site_occupancy
  Dy  Dy0  1  0.42361478  0.42361478  0.50000000  1
  Dy  Dy1  1  0.57638522  0.00000000  0.50000000  1
  Dy  Dy2  1  0.00000000  0.57638522  0.50000000  1
  Cd  Cd3  1  0.75078190  0.75078190  0.00000000  1
  Cd  Cd4  1  0.24921810  1.00000000  -0.00000000  1
  Cd  Cd5  1  1.00000000  0.24921810  0.00000000  1
  Ga  Ga6  1  0.66666700  0.33333300  -0.00000000  1
  Ga  Ga7  1  0.33333300  0.66666700  0.00000000  1
  Ga  Ga8  1  -0.00000000  0.00000000  0.50000000  1
