# generated using pymatgen
data_CsPr(PO3)4
_symmetry_space_group_name_H-M   'P 1'
_cell_length_a   7.17359311
_cell_length_b   8.81783270
_cell_length_c   9.22680346
_cell_angle_alpha   90.00000000
_cell_angle_beta   90.00000000
_cell_angle_gamma   99.45687474
_symmetry_Int_Tables_number   1
_chemical_formula_structural   CsPr(PO3)4
_chemical_formula_sum   'Cs2 Pr2 P8 O24'
_cell_volume   575.71445333
_cell_formula_units_Z   2
loop_
 _symmetry_equiv_pos_site_id
 _symmetry_equiv_pos_as_xyz
  1  'x, y, z'
loop_
 _atom_site_type_symbol
 _atom_site_label
 _atom_site_symmetry_multiplicity
 _atom_site_fract_x
 _atom_site_fract_y
 _atom_site_fract_z
 _atom_site_occupancy
  Cs  Cs0  1  0.67018249  0.17463669  0.33206250  1
  Cs  Cs1  1  0.32981751  0.82536331  0.83206250  1
  Pr  Pr2  1  0.79838661  0.69756917  0.49562478  1
  Pr  Pr3  1  0.20161339  0.30243083  0.99562478  1
  P  P4  1  0.64553118  0.54358229  0.86924106  1
  P  P5  1  0.35446882  0.45641771  0.36924106  1
  P  P6  1  0.06017148  0.37417576  0.60411227  1
  P  P7  1  0.93982852  0.62582424  0.10411227  1
  P  P8  1  0.30651595  0.77310168  0.42301269  1
  P  P9  1  0.69348405  0.22689832  0.92301269  1
  P  P10  1  0.08379693  0.92966985  0.22157722  1
  P  P11  1  0.91620307  0.07033015  0.72157722  1
  O  O12  1  0.84766108  0.59412776  0.24690719  1
  O  O13  1  0.15233892  0.40587224  0.74690719  1
  O  O14  1  0.20969628  0.36183181  0.47967605  1
  O  O15  1  0.79030372  0.63816819  0.97967605  1
  O  O16  1  0.27500816  0.61217287  0.33882360  1
  O  O17  1  0.72499184  0.38782713  0.83882360  1
  O  O18  1  0.53991820  0.49057731  0.44275009  1
  O  O19  1  0.46008180  0.50942269  0.94275009  1
  O  O20  1  0.50744349  0.81679503  0.46671177  1
  O  O21  1  0.49255651  0.18320497  0.96671177  1
  O  O22  1  0.04509084  0.80153150  0.09798520  1
  O  O23  1  0.95490916  0.19846850  0.59798520  1
  O  O24  1  0.07464445  0.08959777  0.82693379  1
  O  O25  1  0.92535555  0.91040223  0.32693379  1
  O  O26  1  0.14259177  0.07779308  0.14896673  1
  O  O27  1  0.85740823  0.92220692  0.64896673  1
  O  O28  1  0.92327810  0.46931034  0.55051990  1
  O  O29  1  0.07672190  0.53068966  0.05051990  1
  O  O30  1  0.72713759  0.11259088  0.79530626  1
  O  O31  1  0.27286241  0.88740912  0.29530626  1
  O  O32  1  0.34057243  0.36727344  0.23319741  1
  O  O33  1  0.65942757  0.63272656  0.73319741  1
  O  O34  1  0.84480738  0.23218774  0.03335048  1
  O  O35  1  0.15519262  0.76781226  0.53335048  1
