# generated using pymatgen
data_TmGaAu
_symmetry_space_group_name_H-M   'P 1'
_cell_length_a   5.61049908
_cell_length_b   5.61049908
_cell_length_c   6.98053345
_cell_angle_alpha   52.52619712
_cell_angle_beta   52.52619712
_cell_angle_gamma   46.41449384
_symmetry_Int_Tables_number   1
_chemical_formula_structural   TmGaAu
_chemical_formula_sum   'Tm2 Ga2 Au2'
_cell_volume   119.29760818
_cell_formula_units_Z   2
loop_
 _symmetry_equiv_pos_site_id
 _symmetry_equiv_pos_as_xyz
  1  'x, y, z'
loop_
 _atom_site_type_symbol
 _atom_site_label
 _atom_site_symmetry_multiplicity
 _atom_site_fract_x
 _atom_site_fract_y
 _atom_site_fract_z
 _atom_site_occupancy
  Tm  Tm0  1  0.46364395  0.46364395  0.29632708  1
  Tm  Tm1  1  0.53635605  0.53635605  0.70367292  1
  Ga  Ga2  1  0.15792856  0.15792856  0.89260894  1
  Ga  Ga3  1  0.84207144  0.84207144  0.10739106  1
  Au  Au4  1  0.82304354  0.82304354  0.71400714  1
  Au  Au5  1  0.17695646  0.17695646  0.28599286  1
