# generated using pymatgen
data_Co3Ge2
_symmetry_space_group_name_H-M   'P 1'
_cell_length_a   3.90240083
_cell_length_b   3.90240083
_cell_length_c   4.84032033
_cell_angle_alpha   90.00000000
_cell_angle_beta   90.00000000
_cell_angle_gamma   119.99999074
_symmetry_Int_Tables_number   1
_chemical_formula_structural   Co3Ge2
_chemical_formula_sum   'Co3 Ge2'
_cell_volume   63.83642063
_cell_formula_units_Z   1
loop_
 _symmetry_equiv_pos_site_id
 _symmetry_equiv_pos_as_xyz
  1  'x, y, z'
loop_
 _atom_site_type_symbol
 _atom_site_label
 _atom_site_symmetry_multiplicity
 _atom_site_fract_x
 _atom_site_fract_y
 _atom_site_fract_z
 _atom_site_occupancy
  Co  Co0  1  0.00000000  0.00000000  0.24227079  1
  Co  Co1  1  0.00000000  -0.00000000  0.75773021  1
  Co  Co2  1  0.33333300  0.66666700  0.49999900  1
  Ge  Ge3  1  0.33333300  0.66666700  0.00000100  1
  Ge  Ge4  1  0.66666700  0.33333300  0.49999900  1
