# generated using pymatgen
data_Sr2RhO4
_symmetry_space_group_name_H-M   'P 1'
_cell_length_a   3.88255737
_cell_length_b   3.88254966
_cell_length_c   6.89187599
_cell_angle_alpha   106.36024421
_cell_angle_beta   106.36027765
_cell_angle_gamma   90.00000000
_symmetry_Int_Tables_number   1
_chemical_formula_structural   Sr2RhO4
_chemical_formula_sum   'Sr2 Rh1 O4'
_cell_volume   95.29107942
_cell_formula_units_Z   1
loop_
 _symmetry_equiv_pos_site_id
 _symmetry_equiv_pos_as_xyz
  1  'x, y, z'
loop_
 _atom_site_type_symbol
 _atom_site_label
 _atom_site_symmetry_multiplicity
 _atom_site_fract_x
 _atom_site_fract_y
 _atom_site_fract_z
 _atom_site_occupancy
  Sr  Sr0  1  0.64558880  0.64558880  0.29117960  1
  Sr  Sr1  1  0.35441120  0.35441120  0.70882040  1
  Rh  Rh2  1  0.00000000  0.00000000  0.00000000  1
  O  O3  1  0.83819693  0.83819693  0.67639286  1
  O  O4  1  0.16180307  0.16180307  0.32360714  1
  O  O5  1  0.00000000  0.50000000  0.00000000  1
  O  O6  1  0.50000000  0.00000000  0.00000000  1
