# generated using pymatgen
data_CeZn2
_symmetry_space_group_name_H-M   'P 1'
_cell_length_a   4.60167530
_cell_length_b   5.74581182
_cell_length_c   5.74581299
_cell_angle_alpha   80.33337523
_cell_angle_beta   66.39448449
_cell_angle_gamma   66.39447858
_symmetry_Int_Tables_number   1
_chemical_formula_structural   CeZn2
_chemical_formula_sum   'Ce2 Zn4'
_cell_volume   127.55559366
_cell_formula_units_Z   2
loop_
 _symmetry_equiv_pos_site_id
 _symmetry_equiv_pos_as_xyz
  1  'x, y, z'
loop_
 _atom_site_type_symbol
 _atom_site_label
 _atom_site_symmetry_multiplicity
 _atom_site_fract_x
 _atom_site_fract_y
 _atom_site_fract_z
 _atom_site_occupancy
  Ce  Ce0  1  0.75000000  0.70627737  0.79372262  1
  Ce  Ce1  1  0.25000000  0.29372263  0.20627738  1
  Zn  Zn2  1  0.56171541  0.27442020  0.60214798  1
  Zn  Zn3  1  0.43828459  0.72557980  0.39785202  1
  Zn  Zn4  1  0.06171541  0.10214798  0.77442020  1
  Zn  Zn5  1  0.93828459  0.89785202  0.22557980  1
