# generated using pymatgen
data_Na2ThF6
_symmetry_space_group_name_H-M   'P 1'
_cell_length_a   6.66386975
_cell_length_b   6.66386975
_cell_length_c   6.66386975
_cell_angle_alpha   144.59675790
_cell_angle_beta   131.29676340
_cell_angle_gamma   61.63711808
_symmetry_Int_Tables_number   1
_chemical_formula_structural   Na2ThF6
_chemical_formula_sum   'Na2 Th1 F6'
_cell_volume   127.44954775
_cell_formula_units_Z   1
loop_
 _symmetry_equiv_pos_site_id
 _symmetry_equiv_pos_as_xyz
  1  'x, y, z'
loop_
 _atom_site_type_symbol
 _atom_site_label
 _atom_site_symmetry_multiplicity
 _atom_site_fract_x
 _atom_site_fract_y
 _atom_site_fract_z
 _atom_site_occupancy
  Na  Na0  1  0.67465659  0.67465659  0.00000000  1
  Na  Na1  1  0.32534341  0.32534341  0.00000000  1
  Th  Th2  1  0.00000000  0.00000000  0.00000000  1
  F  F3  1  0.76499289  0.50000000  0.26499289  1
  F  F4  1  0.40554865  0.15805131  0.24749834  1
  F  F5  1  0.08944603  0.84194869  0.24749834  1
  F  F6  1  0.23500711  0.50000000  0.73500711  1
  F  F7  1  0.91055397  0.15805131  0.75250166  1
  F  F8  1  0.59445135  0.84194869  0.75250166  1
