# generated using pymatgen
data_TmSiPt
_symmetry_space_group_name_H-M   'P 1'
_cell_length_a   4.24709610
_cell_length_b   6.88253092
_cell_length_c   7.37893732
_cell_angle_alpha   90.00000000
_cell_angle_beta   90.00000000
_cell_angle_gamma   90.00000000
_symmetry_Int_Tables_number   1
_chemical_formula_structural   TmSiPt
_chemical_formula_sum   'Tm4 Si4 Pt4'
_cell_volume   215.69202133
_cell_formula_units_Z   4
loop_
 _symmetry_equiv_pos_site_id
 _symmetry_equiv_pos_as_xyz
  1  'x, y, z'
loop_
 _atom_site_type_symbol
 _atom_site_label
 _atom_site_symmetry_multiplicity
 _atom_site_fract_x
 _atom_site_fract_y
 _atom_site_fract_z
 _atom_site_occupancy
  Tm  Tm0  1  0.25000000  0.49653133  0.70215654  1
  Tm  Tm1  1  0.25000000  0.99653133  0.79784346  1
  Tm  Tm2  1  0.75000000  0.50346867  0.29784346  1
  Tm  Tm3  1  0.75000000  0.00346867  0.20215654  1
  Si  Si4  1  0.25000000  0.81197414  0.41216919  1
  Si  Si5  1  0.25000000  0.31197414  0.08783081  1
  Si  Si6  1  0.75000000  0.18802586  0.58783081  1
  Si  Si7  1  0.75000000  0.68802586  0.91216919  1
  Pt  Pt8  1  0.25000000  0.20095292  0.41518039  1
  Pt  Pt9  1  0.25000000  0.70095292  0.08481961  1
  Pt  Pt10  1  0.75000000  0.79904708  0.58481961  1
  Pt  Pt11  1  0.75000000  0.29904708  0.91518039  1
