# generated using pymatgen
data_NdInPd
_symmetry_space_group_name_H-M   'P 1'
_cell_length_a   8.14768709
_cell_length_b   8.14768709
_cell_length_c   3.84178931
_cell_angle_alpha   89.45952494
_cell_angle_beta   89.45952494
_cell_angle_gamma   59.29863223
_symmetry_Int_Tables_number   1
_chemical_formula_structural   NdInPd
_chemical_formula_sum   'Nd3 In3 Pd3'
_cell_volume   219.27763078
_cell_formula_units_Z   3
loop_
 _symmetry_equiv_pos_site_id
 _symmetry_equiv_pos_as_xyz
  1  'x, y, z'
loop_
 _atom_site_type_symbol
 _atom_site_label
 _atom_site_symmetry_multiplicity
 _atom_site_fract_x
 _atom_site_fract_y
 _atom_site_fract_z
 _atom_site_occupancy
  Nd  Nd0  1  0.28061600  0.71938400  0.50000000  1
  Nd  Nd1  1  0.71892000  0.00108700  0.49646000  1
  Nd  Nd2  1  0.99891300  0.28108000  0.50354000  1
  In  In3  1  0.38302300  0.99799300  0.99584700  1
  In  In4  1  0.61832000  0.38168000  0.00000000  1
  In  In5  1  0.00200700  0.61697700  0.00415300  1
  Pd  Pd6  1  0.99940900  0.00059100  0.00000000  1
  Pd  Pd7  1  0.66494200  0.66952800  0.48388800  1
  Pd  Pd8  1  0.33047200  0.33505800  0.51611200  1
