# generated using pymatgen
data_Mo2Se3S
_symmetry_space_group_name_H-M   'P 1'
_cell_length_a   3.28470397
_cell_length_b   3.28470989
_cell_length_c   36.19535750
_cell_angle_alpha   89.99994296
_cell_angle_beta   89.99990059
_cell_angle_gamma   120.00068942
_symmetry_Int_Tables_number   1
_chemical_formula_structural   Mo2Se3S
_chemical_formula_sum   'Mo4 Se6 S2'
_cell_volume   338.20010509
_cell_formula_units_Z   2
loop_
 _symmetry_equiv_pos_site_id
 _symmetry_equiv_pos_as_xyz
  1  'x, y, z'
loop_
 _atom_site_type_symbol
 _atom_site_label
 _atom_site_symmetry_multiplicity
 _atom_site_fract_x
 _atom_site_fract_y
 _atom_site_fract_z
 _atom_site_occupancy
  Mo  Mo0  1  0.00000453  0.99999558  0.09461160  1
  Mo  Mo1  1  0.99996052  0.00003542  0.46927664  1
  Mo  Mo2  1  0.33334735  0.66665266  0.28147211  1
  Mo  Mo3  1  0.33335085  0.66665297  0.65755592  1
  Se  Se4  1  0.00000646  0.99999767  0.32758198  1
  Se  Se5  1  0.00001919  0.99998396  0.70352903  1
  Se  Se6  1  0.33331092  0.66668622  0.42323658  1
  Se  Se7  1  0.33328987  0.66670406  0.51532057  1
  Se  Se8  1  0.00000492  0.99999018  0.23537360  1
  Se  Se9  1  0.00002868  0.99997783  0.61153571  1
  S  S10  1  0.33333736  0.66666407  0.05258129  1
  S  S11  1  0.33333835  0.66666140  0.13667498  1
