# generated using pymatgen
data_LuInRh
_symmetry_space_group_name_H-M   'P 1'
_cell_length_a   4.16745973
_cell_length_b   6.86978595
_cell_length_c   8.47773028
_cell_angle_alpha   90.00000000
_cell_angle_beta   90.00000000
_cell_angle_gamma   90.00000000
_symmetry_Int_Tables_number   1
_chemical_formula_structural   LuInRh
_chemical_formula_sum   'Lu4 In4 Rh4'
_cell_volume   242.71365635
_cell_formula_units_Z   4
loop_
 _symmetry_equiv_pos_site_id
 _symmetry_equiv_pos_as_xyz
  1  'x, y, z'
loop_
 _atom_site_type_symbol
 _atom_site_label
 _atom_site_symmetry_multiplicity
 _atom_site_fract_x
 _atom_site_fract_y
 _atom_site_fract_z
 _atom_site_occupancy
  Lu  Lu0  1  0.25000000  0.53813220  0.67427918  1
  Lu  Lu1  1  0.75000000  0.46186780  0.32572082  1
  Lu  Lu2  1  0.25000000  0.03813220  0.82572082  1
  Lu  Lu3  1  0.75000000  0.96186780  0.17427918  1
  In  In4  1  0.75000000  0.85794948  0.55903285  1
  In  In5  1  0.25000000  0.14205052  0.44096715  1
  In  In6  1  0.75000000  0.35794948  0.94096715  1
  In  In7  1  0.25000000  0.64205052  0.05903285  1
  Rh  Rh8  1  0.25000000  0.24248025  0.13329391  1
  Rh  Rh9  1  0.75000000  0.75751975  0.86670609  1
  Rh  Rh10  1  0.25000000  0.74248025  0.36670609  1
  Rh  Rh11  1  0.75000000  0.25751975  0.63329391  1
