# generated using pymatgen
data_Yb3(GePd)4
_symmetry_space_group_name_H-M   'P 1'
_cell_length_a   7.98194788
_cell_length_b   7.98194788
_cell_length_c   7.98194788
_cell_angle_alpha   150.18790724
_cell_angle_beta   127.73898234
_cell_angle_gamma   61.33250704
_symmetry_Int_Tables_number   1
_chemical_formula_structural   Yb3(GePd)4
_chemical_formula_sum   'Yb3 Ge4 Pd4'
_cell_volume   198.22403359
_cell_formula_units_Z   1
loop_
 _symmetry_equiv_pos_site_id
 _symmetry_equiv_pos_as_xyz
  1  'x, y, z'
loop_
 _atom_site_type_symbol
 _atom_site_label
 _atom_site_symmetry_multiplicity
 _atom_site_fract_x
 _atom_site_fract_y
 _atom_site_fract_z
 _atom_site_occupancy
  Yb  Yb0  1  0.00000000  0.00000000  0.00000000  1
  Yb  Yb1  1  0.62546982  0.12546982  0.50000000  1
  Yb  Yb2  1  0.37453018  0.87453018  0.50000000  1
  Ge  Ge3  1  0.31206733  0.50000000  0.81206733  1
  Ge  Ge4  1  0.68793267  0.50000000  0.18793267  1
  Ge  Ge5  1  0.78107820  0.78107820  0.00000000  1
  Ge  Ge6  1  0.21892180  0.21892180  0.00000000  1
  Pd  Pd7  1  0.62351913  0.32485331  0.29866583  1
  Pd  Pd8  1  0.97381252  0.67514669  0.29866583  1
  Pd  Pd9  1  0.02618748  0.32485331  0.70133417  1
  Pd  Pd10  1  0.37648087  0.67514669  0.70133417  1
