# generated using pymatgen
data_Na2CaH4(CO4)2
_symmetry_space_group_name_H-M   'P 1'
_cell_length_a   11.43834402
_cell_length_b   10.40868218
_cell_length_c   6.35652825
_cell_angle_alpha   82.19597598
_cell_angle_beta   64.35940640
_cell_angle_gamma   33.40726544
_symmetry_Int_Tables_number   1
_chemical_formula_structural   Na2CaH4(CO4)2
_chemical_formula_sum   'Na4 Ca2 H8 C4 O16'
_cell_volume   334.66863303
_cell_formula_units_Z   2
loop_
 _symmetry_equiv_pos_site_id
 _symmetry_equiv_pos_as_xyz
  1  'x, y, z'
loop_
 _atom_site_type_symbol
 _atom_site_label
 _atom_site_symmetry_multiplicity
 _atom_site_fract_x
 _atom_site_fract_y
 _atom_site_fract_z
 _atom_site_occupancy
  Na  Na0  1  0.56441635  0.71276987  0.80687594  1
  Na  Na1  1  0.91531720  0.80672505  0.71330952  1
  Na  Na2  1  0.44340531  0.33408060  0.68508632  1
  Na  Na3  1  0.53736852  0.68502217  0.33454901  1
  Ca  Ca4  1  0.25147492  0.24853559  0.24850591  1
  Ca  Ca5  1  0.00138684  0.99860456  0.99852664  1
  H  H6  1  0.30858654  0.64621949  0.41392116  1
  H  H7  1  0.63143706  0.41378252  0.64597795  1
  H  H8  1  0.83605771  0.61874526  0.94132599  1
  H  H9  1  0.60386769  0.94131672  0.61874461  1
  H  H10  1  0.08255051  0.94085504  0.46881107  1
  H  H11  1  0.50775355  0.46890789  0.94074876  1
  H  H12  1  0.78121634  0.74221886  0.16735637  1
  H  H13  1  0.30916915  0.16748235  0.74224768  1
  C  C14  1  0.45825447  0.31439665  0.20578520  1
  C  C15  1  0.02155395  0.20585293  0.31439245  1
  C  C16  1  0.04397790  0.22868480  0.79190294  1
  C  C17  1  0.93564367  0.79173509  0.22852737  1
  O  O18  1  0.49714573  0.23500431  0.00801988  1
  O  O19  1  0.25982549  0.00810356  0.23502930  1
  O  O20  1  0.24170145  0.99034874  0.75294335  1
  O  O21  1  0.01512082  0.75285087  0.99021186  1
  O  O22  1  0.32687475  0.36140715  0.43168481  1
  O  O23  1  0.87997441  0.43176951  0.36146790  1
  O  O24  1  0.81801050  0.37035111  0.92344589  1
  O  O25  1  0.88859765  0.92308745  0.37010531  1
  O  O26  1  0.54870586  0.35017849  0.17843990  1
  O  O27  1  0.92268534  0.17848310  0.35010385  1
  O  O28  1  0.07145471  0.32746574  0.70135588  1
  O  O29  1  0.89979868  0.70130478  0.32740800  1
  O  O30  1  0.42754783  0.08362160  0.78764530  1
  O  O31  1  0.70139364  0.78764138  0.08333448  1
  O  O32  1  0.46249217  0.54878964  0.82227476  1
  O  O33  1  0.16643227  0.82245811  0.54873563  1
