# generated using pymatgen
data_Ca2CdPt2
_symmetry_space_group_name_H-M   'P 1'
_cell_length_a   5.64450153
_cell_length_b   5.64450153
_cell_length_c   5.64450153
_cell_angle_alpha   133.57299464
_cell_angle_beta   117.05512887
_cell_angle_gamma   81.71334400
_symmetry_Int_Tables_number   1
_chemical_formula_structural   Ca2CdPt2
_chemical_formula_sum   'Ca2 Cd1 Pt2'
_cell_volume   111.96274275
_cell_formula_units_Z   1
loop_
 _symmetry_equiv_pos_site_id
 _symmetry_equiv_pos_as_xyz
  1  'x, y, z'
loop_
 _atom_site_type_symbol
 _atom_site_label
 _atom_site_symmetry_multiplicity
 _atom_site_fract_x
 _atom_site_fract_y
 _atom_site_fract_z
 _atom_site_occupancy
  Ca  Ca0  1  0.29899166  0.79899166  0.50000000  1
  Ca  Ca1  1  0.70100834  0.20100834  0.50000000  1
  Cd  Cd2  1  -0.00000000  0.00000000  -0.00000000  1
  Pt  Pt3  1  0.72490764  0.50000000  0.22490764  1
  Pt  Pt4  1  0.27509236  0.50000000  0.77509236  1
