# generated using pymatgen
data_SrTcO3
_symmetry_space_group_name_H-M   'P 1'
_cell_length_a   5.61511437
_cell_length_b   5.61511437
_cell_length_c   5.61511437
_cell_angle_alpha   120.32607591
_cell_angle_beta   119.26897682
_cell_angle_gamma   90.35347685
_symmetry_Int_Tables_number   1
_chemical_formula_structural   SrTcO3
_chemical_formula_sum   'Sr2 Tc2 O6'
_cell_volume   125.55473589
_cell_formula_units_Z   2
loop_
 _symmetry_equiv_pos_site_id
 _symmetry_equiv_pos_as_xyz
  1  'x, y, z'
loop_
 _atom_site_type_symbol
 _atom_site_label
 _atom_site_symmetry_multiplicity
 _atom_site_fract_x
 _atom_site_fract_y
 _atom_site_fract_z
 _atom_site_occupancy
  Sr  Sr0  1  0.24503395  0.75000000  0.49503395  1
  Sr  Sr1  1  0.75496605  0.25000000  0.50496605  1
  Tc  Tc2  1  0.50000000  0.50000000  -0.00000000  1
  Tc  Tc3  1  -0.00000000  0.00000000  -0.00000000  1
  O  O4  1  0.68224082  0.75000000  0.93224082  1
  O  O5  1  0.31775918  0.25000000  0.06775918  1
  O  O6  1  0.21274638  0.21274638  0.50000000  1
  O  O7  1  0.78725362  0.28725362  -0.00000000  1
  O  O8  1  0.21274638  0.71274638  -0.00000000  1
  O  O9  1  0.78725362  0.78725362  0.50000000  1
