# generated using pymatgen
data_Rb2ThF6
_symmetry_space_group_name_H-M   'P 1'
_cell_length_a   6.83962200
_cell_length_b   6.83962110
_cell_length_c   3.83517868
_cell_angle_alpha   90.00000000
_cell_angle_beta   90.00000000
_cell_angle_gamma   119.99999953
_symmetry_Int_Tables_number   1
_chemical_formula_structural   Rb2ThF6
_chemical_formula_sum   'Rb2 Th1 F6'
_cell_volume   155.37472750
_cell_formula_units_Z   1
loop_
 _symmetry_equiv_pos_site_id
 _symmetry_equiv_pos_as_xyz
  1  'x, y, z'
loop_
 _atom_site_type_symbol
 _atom_site_label
 _atom_site_symmetry_multiplicity
 _atom_site_fract_x
 _atom_site_fract_y
 _atom_site_fract_z
 _atom_site_occupancy
  Rb  Rb0  1  0.33333300  0.66666700  0.50000000  1
  Rb  Rb1  1  0.66666700  0.33333300  0.50000000  1
  Th  Th2  1  -0.00000000  0.00000000  -0.00000000  1
  F  F3  1  -0.00000000  0.22042252  0.50000000  1
  F  F4  1  0.77957748  0.77957748  0.50000000  1
  F  F5  1  0.22042252  0.00000000  0.50000000  1
  F  F6  1  0.66481762  -0.00000000  0.00000000  1
  F  F7  1  0.33518238  0.33518238  -0.00000000  1
  F  F8  1  0.00000000  0.66481762  0.00000000  1
