# generated using pymatgen
data_Ga2Ru
_symmetry_space_group_name_H-M   'P 1'
_cell_length_a   4.72783286
_cell_length_b   4.72783286
_cell_length_c   4.94625742
_cell_angle_alpha   103.82268972
_cell_angle_beta   103.82268972
_cell_angle_gamma   120.01332558
_symmetry_Int_Tables_number   1
_chemical_formula_structural   Ga2Ru
_chemical_formula_sum   'Ga4 Ru2'
_cell_volume   84.09379009
_cell_formula_units_Z   2
loop_
 _symmetry_equiv_pos_site_id
 _symmetry_equiv_pos_as_xyz
  1  'x, y, z'
loop_
 _atom_site_type_symbol
 _atom_site_label
 _atom_site_symmetry_multiplicity
 _atom_site_fract_x
 _atom_site_fract_y
 _atom_site_fract_z
 _atom_site_occupancy
  Ga  Ga0  1  0.08086160  0.91913840  0.50000000  1
  Ga  Ga1  1  0.41909077  0.58090923  0.50000000  1
  Ga  Ga2  1  0.66913840  0.33086160  -0.00000000  1
  Ga  Ga3  1  0.33090823  0.66909177  0.00000000  1
  Ru  Ru4  1  0.74999573  0.25000427  0.50000000  1
  Ru  Ru5  1  0.00000427  0.99999573  0.00000000  1
