# generated using pymatgen
data_CaLaVFeO6
_symmetry_space_group_name_H-M   'P 1'
_cell_length_a   5.53427778
_cell_length_b   7.70906586
_cell_length_c   5.59937283
_cell_angle_alpha   90.05883914
_cell_angle_beta   89.97941447
_cell_angle_gamma   89.75898730
_symmetry_Int_Tables_number   1
_chemical_formula_structural   CaLaVFeO6
_chemical_formula_sum   'Ca2 La2 V2 Fe2 O12'
_cell_volume   238.89001347
_cell_formula_units_Z   2
loop_
 _symmetry_equiv_pos_site_id
 _symmetry_equiv_pos_as_xyz
  1  'x, y, z'
loop_
 _atom_site_type_symbol
 _atom_site_label
 _atom_site_symmetry_multiplicity
 _atom_site_fract_x
 _atom_site_fract_y
 _atom_site_fract_z
 _atom_site_occupancy
  Ca  Ca0  1  0.51296000  0.25043300  0.54027400  1
  Ca  Ca1  1  0.01323100  0.75037900  0.95967300  1
  La  La2  1  0.98882200  0.24892100  0.03104500  1
  La  La3  1  0.48903300  0.74915600  0.46911900  1
  V  V4  1  0.49980400  0.99870700  0.99954600  1
  V  V5  1  0.99959100  0.49858600  0.50037500  1
  Fe  Fe6  1  0.99898600  0.00035300  0.50024000  1
  Fe  Fe7  1  0.49894700  0.50029600  0.99976300  1
  O  O8  1  0.58318300  0.75989700  0.01446500  1
  O  O9  1  0.08258200  0.25961600  0.48620700  1
  O  O10  1  0.21608500  0.95674200  0.21146100  1
  O  O11  1  0.71560000  0.45671600  0.28756700  1
  O  O12  1  0.21273700  0.54574400  0.21630100  1
  O  O13  1  0.71196500  0.04530100  0.28342500  1
  O  O14  1  0.92547200  0.74077900  0.51824200  1
  O  O15  1  0.42476600  0.24064700  0.98134400  1
  O  O16  1  0.28059800  0.54127300  0.71729200  1
  O  O17  1  0.78021300  0.04129800  0.78335000  1
  O  O18  1  0.28299800  0.95779300  0.71977600  1
  O  O19  1  0.78243100  0.45736000  0.78053500  1
