# generated using pymatgen
data_GaGe2H5CNO6
_symmetry_space_group_name_H-M   'P 1'
_cell_length_a   7.29564000
_cell_length_b   7.80654966
_cell_length_c   7.80947543
_cell_angle_alpha   113.50555950
_cell_angle_beta   101.42052926
_cell_angle_gamma   108.64096499
_symmetry_Int_Tables_number   1
_chemical_formula_structural   GaGe2H5CNO6
_chemical_formula_sum   'Ga2 Ge4 H10 C2 N2 O12'
_cell_volume   358.33507573
_cell_formula_units_Z   2
loop_
 _symmetry_equiv_pos_site_id
 _symmetry_equiv_pos_as_xyz
  1  'x, y, z'
loop_
 _atom_site_type_symbol
 _atom_site_label
 _atom_site_symmetry_multiplicity
 _atom_site_fract_x
 _atom_site_fract_y
 _atom_site_fract_z
 _atom_site_occupancy
  Ga  Ga0  1  0.32815000  0.06257300  0.74425600  1
  Ga  Ga1  1  0.67185000  0.93742700  0.25574400  1
  Ge  Ge2  1  0.58031600  0.77875400  0.69898400  1
  Ge  Ge3  1  0.41968400  0.22124600  0.30101600  1
  Ge  Ge4  1  0.77584200  0.71320900  0.98048700  1
  Ge  Ge5  1  0.22415800  0.28679100  0.01951300  1
  H  H6  1  0.79705300  0.49133300  0.47883500  1
  H  H7  1  0.20294700  0.50866700  0.52116500  1
  H  H8  1  0.98156500  0.39781200  0.36815000  1
  H  H9  1  0.01843500  0.60218800  0.63185000  1
  H  H10  1  0.09796600  0.73667800  0.12856000  1
  H  H11  1  0.90203400  0.26332200  0.87144000  1
  H  H12  1  0.12194700  0.82981100  0.28469100  1
  H  H13  1  0.87805300  0.17018900  0.71530900  1
  H  H14  1  0.30279100  0.74976600  0.18691400  1
  H  H15  1  0.69720900  0.25023400  0.81308600  1
  C  C16  1  0.96948800  0.51040500  0.42044800  1
  C  C17  1  0.03051200  0.48959500  0.57955200  1
  N  N18  1  0.13299500  0.71921800  0.24389400  1
  N  N19  1  0.86700500  0.28078200  0.75610600  1
  O  O20  1  0.56127900  0.99927400  0.68656500  1
  O  O21  1  0.43872100  0.00072600  0.31343500  1
  O  O22  1  0.32312400  0.55529000  0.91159300  1
  O  O23  1  0.67687600  0.44471000  0.08840700  1
  O  O24  1  0.05213100  0.82164800  0.93993800  1
  O  O25  1  0.94786900  0.17835200  0.06006200  1
  O  O26  1  0.59748100  0.78485200  0.12925000  1
  O  O27  1  0.40251900  0.21514800  0.87075000  1
  O  O28  1  0.80719600  0.79410900  0.74062800  1
  O  O29  1  0.19280400  0.20589100  0.25937200  1
  O  O30  1  0.65849300  0.76810900  0.47279900  1
  O  O31  1  0.34150700  0.23189100  0.52720100  1
