# generated using pymatgen
data_U(FeB3)2
_symmetry_space_group_name_H-M   'P 1'
_cell_length_a   5.34049895
_cell_length_b   5.34049895
_cell_length_c   5.34049895
_cell_angle_alpha   145.97004705
_cell_angle_beta   110.00911110
_cell_angle_gamma   80.15899448
_symmetry_Int_Tables_number   1
_chemical_formula_structural   U(FeB3)2
_chemical_formula_sum   'U1 Fe2 B6'
_cell_volume   78.23508874
_cell_formula_units_Z   1
loop_
 _symmetry_equiv_pos_site_id
 _symmetry_equiv_pos_as_xyz
  1  'x, y, z'
loop_
 _atom_site_type_symbol
 _atom_site_label
 _atom_site_symmetry_multiplicity
 _atom_site_fract_x
 _atom_site_fract_y
 _atom_site_fract_z
 _atom_site_occupancy
  U  U0  1  0.50000000  0.00000000  0.50000000  1
  Fe  Fe1  1  0.84616651  0.84616651  0.00000000  1
  Fe  Fe2  1  0.15383349  0.15383349  -0.00000000  1
  B  B3  1  0.85573744  0.50000000  0.35573744  1
  B  B4  1  0.14426256  0.50000000  0.64426256  1
  B  B5  1  0.95893351  0.69660986  0.26232365  1
  B  B6  1  0.04106649  0.30339014  0.73767635  1
  B  B7  1  0.56571379  0.30339014  0.26232365  1
  B  B8  1  0.43428621  0.69660986  0.73767635  1
