# generated using pymatgen
data_EuBe13
_symmetry_space_group_name_H-M   'P 1'
_cell_length_a   7.29255681
_cell_length_b   7.29255609
_cell_length_c   7.29253514
_cell_angle_alpha   60.00009501
_cell_angle_beta   60.00010482
_cell_angle_gamma   60.00017866
_symmetry_Int_Tables_number   1
_chemical_formula_structural   EuBe13
_chemical_formula_sum   'Eu2 Be26'
_cell_volume   274.23594187
_cell_formula_units_Z   2
loop_
 _symmetry_equiv_pos_site_id
 _symmetry_equiv_pos_as_xyz
  1  'x, y, z'
loop_
 _atom_site_type_symbol
 _atom_site_label
 _atom_site_symmetry_multiplicity
 _atom_site_fract_x
 _atom_site_fract_y
 _atom_site_fract_z
 _atom_site_occupancy
  Eu  Eu0  1  0.75000000  0.75000000  0.75000000  1
  Eu  Eu1  1  0.25000000  0.25000000  0.25000000  1
  Be  Be2  1  0.50000000  0.50000000  0.50000000  1
  Be  Be3  1  0.00000000  -0.00000000  0.00000000  1
  Be  Be4  1  0.78851141  0.43692383  0.21148065  1
  Be  Be5  1  0.21148859  0.56307617  0.78851935  1
  Be  Be6  1  0.56307617  0.21148859  0.43691589  1
  Be  Be7  1  0.43692383  0.78851141  0.56308411  1
  Be  Be8  1  0.28851838  0.06307684  0.71148841  1
  Be  Be9  1  0.71148162  0.93692316  0.28851159  1
  Be  Be10  1  0.93692316  0.71148162  0.06308262  1
  Be  Be11  1  0.06307684  0.28851838  0.93691738  1
  Be  Be12  1  0.43692316  0.21148162  0.78851159  1
  Be  Be13  1  0.56307684  0.78851838  0.21148841  1
  Be  Be14  1  0.21148162  0.43692316  0.56308262  1
  Be  Be15  1  0.78851838  0.56307684  0.43691738  1
  Be  Be16  1  0.06307617  0.71148859  0.28851935  1
  Be  Be17  1  0.93692383  0.28851141  0.71148065  1
  Be  Be18  1  0.71148859  0.06307617  0.93691589  1
  Be  Be19  1  0.28851141  0.93692383  0.06308411  1
  Be  Be20  1  0.21148902  0.78851098  0.43691497  1
  Be  Be21  1  0.78851098  0.21148902  0.56308503  1
  Be  Be22  1  0.43692541  0.56307459  0.21148055  1
  Be  Be23  1  0.56307459  0.43692541  0.78851945  1
  Be  Be24  1  0.71148902  0.28851098  0.06308503  1
  Be  Be25  1  0.28851098  0.71148902  0.93691497  1
  Be  Be26  1  0.06307459  0.93692541  0.71148055  1
  Be  Be27  1  0.93692541  0.06307459  0.28851945  1
