# generated using pymatgen
data_BaLaSi2
_symmetry_space_group_name_H-M   'P 1'
_cell_length_a   4.67112106
_cell_length_b   6.75123747
_cell_length_c   7.90693154
_cell_angle_alpha   90.00114954
_cell_angle_beta   107.18040935
_cell_angle_gamma   90.00000000
_symmetry_Int_Tables_number   1
_chemical_formula_structural   BaLaSi2
_chemical_formula_sum   'Ba2 La2 Si4'
_cell_volume   238.22556483
_cell_formula_units_Z   2
loop_
 _symmetry_equiv_pos_site_id
 _symmetry_equiv_pos_as_xyz
  1  'x, y, z'
loop_
 _atom_site_type_symbol
 _atom_site_label
 _atom_site_symmetry_multiplicity
 _atom_site_fract_x
 _atom_site_fract_y
 _atom_site_fract_z
 _atom_site_occupancy
  Ba  Ba0  1  0.27841012  0.74997662  0.55681824  1
  Ba  Ba1  1  0.72158988  0.25002338  0.44318176  1
  La  La2  1  0.54763838  0.74999510  0.09527576  1
  La  La3  1  0.45236162  0.25000490  0.90472424  1
  Si  Si4  1  0.92581855  0.56898214  0.85163709  1
  Si  Si5  1  0.07418145  0.43101786  0.14836291  1
  Si  Si6  1  0.92581880  0.93099471  0.85163960  1
  Si  Si7  1  0.07418120  0.06900529  0.14836040  1
