# generated using pymatgen
data_Hf5Sb3
_symmetry_space_group_name_H-M   'P 1'
_cell_length_a   7.40184717
_cell_length_b   8.77022079
_cell_length_c   10.76611776
_cell_angle_alpha   90.00000000
_cell_angle_beta   90.00000000
_cell_angle_gamma   90.00000000
_symmetry_Int_Tables_number   1
_chemical_formula_structural   Hf5Sb3
_chemical_formula_sum   'Hf20 Sb12'
_cell_volume   698.89151263
_cell_formula_units_Z   4
loop_
 _symmetry_equiv_pos_site_id
 _symmetry_equiv_pos_as_xyz
  1  'x, y, z'
loop_
 _atom_site_type_symbol
 _atom_site_label
 _atom_site_symmetry_multiplicity
 _atom_site_fract_x
 _atom_site_fract_y
 _atom_site_fract_z
 _atom_site_occupancy
  Hf  Hf0  1  0.80332552  0.44301020  0.56297740  1
  Hf  Hf1  1  0.30332552  0.05698980  0.93702260  1
  Hf  Hf2  1  0.19667448  0.94301020  0.43702260  1
  Hf  Hf3  1  0.69667448  0.55698980  0.06297740  1
  Hf  Hf4  1  0.13513928  0.25000000  0.71628741  1
  Hf  Hf5  1  0.63513928  0.25000000  0.78371259  1
  Hf  Hf6  1  0.86486072  0.75000000  0.28371259  1
  Hf  Hf7  1  0.36486072  0.75000000  0.21628741  1
  Hf  Hf8  1  0.30332552  0.44301020  0.93702260  1
  Hf  Hf9  1  0.80332552  0.05698980  0.56297740  1
  Hf  Hf10  1  0.69667448  0.94301020  0.06297740  1
  Hf  Hf11  1  0.19667448  0.55698980  0.43702260  1
  Hf  Hf12  1  0.19290540  0.75000000  0.72406238  1
  Hf  Hf13  1  0.69290540  0.75000000  0.77593762  1
  Hf  Hf14  1  0.80709460  0.25000000  0.27593762  1
  Hf  Hf15  1  0.30709460  0.25000000  0.22406238  1
  Hf  Hf16  1  0.02707578  0.75000000  0.98951429  1
  Hf  Hf17  1  0.52707578  0.75000000  0.51048571  1
  Hf  Hf18  1  0.97292422  0.25000000  0.01048571  1
  Hf  Hf19  1  0.47292422  0.25000000  0.48951329  1
  Sb  Sb20  1  0.41844402  0.75000000  0.95583298  1
  Sb  Sb21  1  0.91844402  0.75000000  0.54416702  1
  Sb  Sb22  1  0.58155598  0.25000000  0.04416702  1
  Sb  Sb23  1  0.08155598  0.25000000  0.45583298  1
  Sb  Sb24  1  0.57643669  0.99240162  0.32635249  1
  Sb  Sb25  1  0.07643669  0.50759838  0.17364751  1
  Sb  Sb26  1  0.42356331  0.49240162  0.67364751  1
  Sb  Sb27  1  0.92356331  0.00759838  0.82635249  1
  Sb  Sb28  1  0.42356331  0.00759838  0.67364751  1
  Sb  Sb29  1  0.92356331  0.49240162  0.82635249  1
  Sb  Sb30  1  0.57643669  0.50759838  0.32635249  1
  Sb  Sb31  1  0.07643669  0.99240162  0.17364751  1
