# generated using pymatgen
data_Tb3Ge3Ir2
_symmetry_space_group_name_H-M   'P 1'
_cell_length_a   5.66803599
_cell_length_b   5.66803599
_cell_length_c   14.30484897
_cell_angle_alpha   90.00000000
_cell_angle_beta   90.00000000
_cell_angle_gamma   135.28506557
_symmetry_Int_Tables_number   1
_chemical_formula_structural   Tb3Ge3Ir2
_chemical_formula_sum   'Tb6 Ge6 Ir4'
_cell_volume   323.34185974
_cell_formula_units_Z   2
loop_
 _symmetry_equiv_pos_site_id
 _symmetry_equiv_pos_as_xyz
  1  'x, y, z'
loop_
 _atom_site_type_symbol
 _atom_site_label
 _atom_site_symmetry_multiplicity
 _atom_site_fract_x
 _atom_site_fract_y
 _atom_site_fract_z
 _atom_site_occupancy
  Tb  Tb0  1  0.91469176  0.08530824  0.39031491  1
  Tb  Tb1  1  0.08530824  0.91469176  0.60968509  1
  Tb  Tb2  1  0.91469176  0.08530824  0.10968509  1
  Tb  Tb3  1  0.08530824  0.91469176  0.89031491  1
  Tb  Tb4  1  0.64182937  0.35817063  0.25000000  1
  Tb  Tb5  1  0.35817063  0.64182937  0.75000000  1
  Ge  Ge6  1  0.62547923  0.37452077  0.46424511  1
  Ge  Ge7  1  0.37452077  0.62547923  0.53575489  1
  Ge  Ge8  1  0.62547923  0.37452077  0.03575489  1
  Ge  Ge9  1  0.37452077  0.62547923  0.96424511  1
  Ge  Ge10  1  0.34142938  0.65857062  0.25000000  1
  Ge  Ge11  1  0.65857062  0.34142938  0.75000000  1
  Ir  Ir12  1  0.80024157  0.19975843  0.89794532  1
  Ir  Ir13  1  0.19975843  0.80024157  0.10205468  1
  Ir  Ir14  1  0.80024157  0.19975843  0.60205468  1
  Ir  Ir15  1  0.19975843  0.80024157  0.39794532  1
