# generated using pymatgen
data_Tm2TeO2
_symmetry_space_group_name_H-M   'P 1'
_cell_length_a   3.83268268
_cell_length_b   3.83268268
_cell_length_c   14.14806523
_cell_angle_alpha   90.00000000
_cell_angle_beta   90.00000000
_cell_angle_gamma   119.99999591
_symmetry_Int_Tables_number   1
_chemical_formula_structural   Tm2TeO2
_chemical_formula_sum   'Tm4 Te2 O4'
_cell_volume   179.98380629
_cell_formula_units_Z   2
loop_
 _symmetry_equiv_pos_site_id
 _symmetry_equiv_pos_as_xyz
  1  'x, y, z'
loop_
 _atom_site_type_symbol
 _atom_site_label
 _atom_site_symmetry_multiplicity
 _atom_site_fract_x
 _atom_site_fract_y
 _atom_site_fract_z
 _atom_site_occupancy
  Tm  Tm0  1  0.33333300  0.66666700  0.90327644  1
  Tm  Tm1  1  0.33333300  0.66666700  0.59672356  1
  Tm  Tm2  1  0.66666700  0.33333300  0.40327644  1
  Tm  Tm3  1  0.66666700  0.33333300  0.09672356  1
  Te  Te4  1  0.00000000  -0.00000000  0.25000000  1
  Te  Te5  1  0.00000000  -0.00000000  0.75000000  1
  O  O6  1  0.33333300  0.66666700  0.05968745  1
  O  O7  1  0.33333300  0.66666700  0.44031255  1
  O  O8  1  0.66666700  0.33333300  0.94031255  1
  O  O9  1  0.66666700  0.33333300  0.55968745  1
