# generated using pymatgen
data_ErSiPt
_symmetry_space_group_name_H-M   'P 1'
_cell_length_a   4.25349354
_cell_length_b   6.91701003
_cell_length_c   7.39363476
_cell_angle_alpha   90.00000000
_cell_angle_beta   90.00000000
_cell_angle_gamma   90.00000000
_symmetry_Int_Tables_number   1
_chemical_formula_structural   ErSiPt
_chemical_formula_sum   'Er4 Si4 Pt4'
_cell_volume   217.53151070
_cell_formula_units_Z   4
loop_
 _symmetry_equiv_pos_site_id
 _symmetry_equiv_pos_as_xyz
  1  'x, y, z'
loop_
 _atom_site_type_symbol
 _atom_site_label
 _atom_site_symmetry_multiplicity
 _atom_site_fract_x
 _atom_site_fract_y
 _atom_site_fract_z
 _atom_site_occupancy
  Er  Er0  1  0.25000000  0.99688493  0.79876511  1
  Er  Er1  1  0.25000000  0.49688493  0.70123489  1
  Er  Er2  1  0.75000000  0.00309912  0.20125760  1
  Er  Er3  1  0.75000000  0.50309912  0.29874240  1
  Si  Si4  1  0.25000000  0.81250974  0.41215770  1
  Si  Si5  1  0.25000000  0.31250974  0.08784230  1
  Si  Si6  1  0.75000000  0.18749746  0.58777217  1
  Si  Si7  1  0.75000000  0.68749746  0.91222783  1
  Pt  Pt8  1  0.25000000  0.20008591  0.41525452  1
  Pt  Pt9  1  0.25000000  0.70008591  0.08474548  1
  Pt  Pt10  1  0.75000000  0.79992285  0.58462661  1
  Pt  Pt11  1  0.75000000  0.29992285  0.91537339  1
