# generated using pymatgen
data_RbAg3Te2
_symmetry_space_group_name_H-M   'P 1'
_cell_length_a   4.60366146
_cell_length_b   9.07172397
_cell_length_c   9.33614163
_cell_angle_alpha   111.77664527
_cell_angle_beta   90.00000000
_cell_angle_gamma   104.69874740
_symmetry_Int_Tables_number   1
_chemical_formula_structural   RbAg3Te2
_chemical_formula_sum   'Rb2 Ag6 Te4'
_cell_volume   348.30353220
_cell_formula_units_Z   2
loop_
 _symmetry_equiv_pos_site_id
 _symmetry_equiv_pos_as_xyz
  1  'x, y, z'
loop_
 _atom_site_type_symbol
 _atom_site_label
 _atom_site_symmetry_multiplicity
 _atom_site_fract_x
 _atom_site_fract_y
 _atom_site_fract_z
 _atom_site_occupancy
  Rb  Rb0  1  0.13554277  0.27108654  0.04931028  1
  Rb  Rb1  1  0.86445723  0.72891346  0.95068972  1
  Ag  Ag2  1  0.93863237  0.87726374  0.58859205  1
  Ag  Ag3  1  0.58582873  0.17165646  0.62265896  1
  Ag  Ag4  1  0.06136763  0.12273626  0.41140795  1
  Ag  Ag5  1  0.30852247  0.61704394  0.54388400  1
  Ag  Ag6  1  0.41417127  0.82834354  0.37734104  1
  Ag  Ag7  1  0.69147753  0.38295606  0.45611600  1
  Te  Te8  1  0.20060457  0.40120714  0.69813250  1
  Te  Te9  1  0.47899621  0.95799242  0.77527192  1
  Te  Te10  1  0.52100379  0.04200758  0.22472808  1
  Te  Te11  1  0.79939543  0.59879286  0.30186750  1
