# generated using pymatgen
data_SmGe2Ir
_symmetry_space_group_name_H-M   'P 1'
_cell_length_a   9.47416901
_cell_length_b   9.47416901
_cell_length_c   9.47416901
_cell_angle_alpha   153.58780364
_cell_angle_beta   123.92192502
_cell_angle_gamma   63.01997919
_symmetry_Int_Tables_number   1
_chemical_formula_structural   SmGe2Ir
_chemical_formula_sum   'Sm4 Ge8 Ir4'
_cell_volume   311.43526564
_cell_formula_units_Z   4
loop_
 _symmetry_equiv_pos_site_id
 _symmetry_equiv_pos_as_xyz
  1  'x, y, z'
loop_
 _atom_site_type_symbol
 _atom_site_label
 _atom_site_symmetry_multiplicity
 _atom_site_fract_x
 _atom_site_fract_y
 _atom_site_fract_z
 _atom_site_occupancy
  Sm  Sm0  1  0.26055905  0.00000000  0.26055905  1
  Sm  Sm1  1  0.73944095  -0.00000000  0.73944095  1
  Sm  Sm2  1  0.29372965  0.79372965  0.50000000  1
  Sm  Sm3  1  0.70627035  0.20627035  0.50000000  1
  Ge  Ge4  1  0.92212492  0.42212492  0.50000000  1
  Ge  Ge5  1  0.07787508  0.57787508  0.50000000  1
  Ge  Ge6  1  0.42291882  0.42291882  -0.00000000  1
  Ge  Ge7  1  0.57708118  0.57708118  0.00000000  1
  Ge  Ge8  1  0.04535072  0.19981447  0.84553625  1
  Ge  Ge9  1  0.95464928  0.80018553  0.15446375  1
  Ge  Ge10  1  0.35427723  0.19981447  0.15446375  1
  Ge  Ge11  1  0.64572277  0.80018553  0.84553625  1
  Ir  Ir12  1  0.10144999  0.35395670  0.74749229  1
  Ir  Ir13  1  0.89855001  0.64604230  0.25250771  1
  Ir  Ir14  1  0.60646542  0.35395670  0.25250771  1
  Ir  Ir15  1  0.39353458  0.64604330  0.74749229  1
