# generated using pymatgen
data_Eu5Sb3
_symmetry_space_group_name_H-M   'P 1'
_cell_length_a   7.07377186
_cell_length_b   9.41304319
_cell_length_c   9.41305464
_cell_angle_alpha   119.99780100
_cell_angle_beta   89.99917820
_cell_angle_gamma   90.00231124
_symmetry_Int_Tables_number   1
_chemical_formula_structural   Eu5Sb3
_chemical_formula_sum   'Eu10 Sb6'
_cell_volume   542.81511731
_cell_formula_units_Z   2
loop_
 _symmetry_equiv_pos_site_id
 _symmetry_equiv_pos_as_xyz
  1  'x, y, z'
loop_
 _atom_site_type_symbol
 _atom_site_label
 _atom_site_symmetry_multiplicity
 _atom_site_fract_x
 _atom_site_fract_y
 _atom_site_fract_z
 _atom_site_occupancy
  Eu  Eu0  1  0.50000812  0.33334256  0.66666883  1
  Eu  Eu1  1  0.50000683  0.66666065  0.33333268  1
  Eu  Eu2  1  0.00000618  0.66665729  0.33333809  1
  Eu  Eu3  1  0.00000509  0.33333239  0.66666291  1
  Eu  Eu4  1  0.75001292  0.25504131  0.00000124  1
  Eu  Eu5  1  0.75000929  0.74495170  0.74495132  1
  Eu  Eu6  1  0.75000907  0.00000996  0.25505094  1
  Eu  Eu7  1  0.25001182  0.74495605  -0.00000433  1
  Eu  Eu8  1  0.25000931  0.25504300  0.25505111  1
  Eu  Eu9  1  0.25000934  -0.00000347  0.74495911  1
  Sb  Sb10  1  0.75005819  0.61247020  0.00000573  1
  Sb  Sb11  1  0.74993501  0.38756361  0.38756893  1
  Sb  Sb12  1  0.74994625  -0.00000681  0.61243146  1
  Sb  Sb13  1  0.25007407  0.38755636  -0.00000246  1
  Sb  Sb14  1  0.24994528  0.61242759  0.61242571  1
  Sb  Sb15  1  0.24995224  -0.00000240  0.38755874  1
