# generated using pymatgen
data_La2(SnPb)3
_symmetry_space_group_name_H-M   'P 1'
_cell_length_a   4.87655956
_cell_length_b   4.88667017
_cell_length_c   9.74773927
_cell_angle_alpha   90.00000000
_cell_angle_beta   90.00000000
_cell_angle_gamma   90.00000000
_symmetry_Int_Tables_number   1
_chemical_formula_structural   La2(SnPb)3
_chemical_formula_sum   'La2 Sn3 Pb3'
_cell_volume   232.28997330
_cell_formula_units_Z   1
loop_
 _symmetry_equiv_pos_site_id
 _symmetry_equiv_pos_as_xyz
  1  'x, y, z'
loop_
 _atom_site_type_symbol
 _atom_site_label
 _atom_site_symmetry_multiplicity
 _atom_site_fract_x
 _atom_site_fract_y
 _atom_site_fract_z
 _atom_site_occupancy
  La  La0  1  -0.00000000  0.00000000  0.24484364  1
  La  La1  1  -0.00000000  0.00000000  0.75515636  1
  Sn  Sn2  1  -0.00000000  0.50000000  -0.00000000  1
  Sn  Sn3  1  0.50000000  0.00000000  0.50000000  1
  Sn  Sn4  1  0.50000000  0.00000000  -0.00000000  1
  Pb  Pb5  1  0.50000000  0.50000000  0.24773108  1
  Pb  Pb6  1  0.50000000  0.50000000  0.75226892  1
  Pb  Pb7  1  -0.00000000  0.50000000  0.50000000  1
