# generated using pymatgen
data_ThPt2
_symmetry_space_group_name_H-M   'P 1'
_cell_length_a   4.18813120
_cell_length_b   4.18813120
_cell_length_c   7.79883525
_cell_angle_alpha   105.60591936
_cell_angle_beta   105.60591936
_cell_angle_gamma   89.96380709
_symmetry_Int_Tables_number   1
_chemical_formula_structural   ThPt2
_chemical_formula_sum   'Th2 Pt4'
_cell_volume   126.51493144
_cell_formula_units_Z   2
loop_
 _symmetry_equiv_pos_site_id
 _symmetry_equiv_pos_as_xyz
  1  'x, y, z'
loop_
 _atom_site_type_symbol
 _atom_site_label
 _atom_site_symmetry_multiplicity
 _atom_site_fract_x
 _atom_site_fract_y
 _atom_site_fract_z
 _atom_site_occupancy
  Th  Th0  1  0.65636718  0.65636718  0.31278406  1
  Th  Th1  1  0.34363282  0.34363282  0.68721594  1
  Pt  Pt2  1  0.50000000  -0.00000000  -0.00000000  1
  Pt  Pt3  1  0.00000000  0.50000000  -0.00000000  1
  Pt  Pt4  1  0.86450410  0.86450410  0.72875235  1
  Pt  Pt5  1  0.13549590  0.13549590  0.27124765  1
