# generated using pymatgen
data_Dy3Pt4
_symmetry_space_group_name_H-M   'P 1'
_cell_length_a   5.69877058
_cell_length_b   7.82873305
_cell_length_c   7.82873356
_cell_angle_alpha   114.31080281
_cell_angle_beta   104.04260610
_cell_angle_gamma   104.04260703
_symmetry_Int_Tables_number   1
_chemical_formula_structural   Dy3Pt4
_chemical_formula_sum   'Dy6 Pt8'
_cell_volume   284.67004810
_cell_formula_units_Z   2
loop_
 _symmetry_equiv_pos_site_id
 _symmetry_equiv_pos_as_xyz
  1  'x, y, z'
loop_
 _atom_site_type_symbol
 _atom_site_label
 _atom_site_symmetry_multiplicity
 _atom_site_fract_x
 _atom_site_fract_y
 _atom_site_fract_z
 _atom_site_occupancy
  Dy  Dy0  1  0.40546019  0.12548077  0.37709058  1
  Dy  Dy1  1  0.02837061  0.62290942  0.74839019  1
  Dy  Dy2  1  0.27997942  0.25160981  0.87451923  1
  Dy  Dy3  1  0.59453981  0.87451923  0.62290942  1
  Dy  Dy4  1  0.97162939  0.37709058  0.25160981  1
  Dy  Dy5  1  0.72002058  0.74839019  0.12548077  1
  Pt  Pt6  1  0.00000000  -0.00000000  0.00000000  1
  Pt  Pt7  1  0.50000000  -0.00000000  0.00000000  1
  Pt  Pt8  1  0.22666207  0.67342690  0.16570457  1
  Pt  Pt9  1  0.06095750  0.83429543  0.50772233  1
  Pt  Pt10  1  0.55323418  0.49227767  0.32657310  1
  Pt  Pt11  1  0.77333793  0.32657310  0.83429543  1
  Pt  Pt12  1  0.93904250  0.16570457  0.49227767  1
  Pt  Pt13  1  0.44676582  0.50772233  0.67342690  1
