# generated using pymatgen
data_Lu2B6Ru
_symmetry_space_group_name_H-M   'P 1'
_cell_length_a   3.58095600
_cell_length_b   8.99637704
_cell_length_c   11.34958527
_cell_angle_alpha   90.00000000
_cell_angle_beta   90.00000000
_cell_angle_gamma   90.00000000
_symmetry_Int_Tables_number   1
_chemical_formula_structural   Lu2B6Ru
_chemical_formula_sum   'Lu8 B24 Ru4'
_cell_volume   365.63404357
_cell_formula_units_Z   4
loop_
 _symmetry_equiv_pos_site_id
 _symmetry_equiv_pos_as_xyz
  1  'x, y, z'
loop_
 _atom_site_type_symbol
 _atom_site_label
 _atom_site_symmetry_multiplicity
 _atom_site_fract_x
 _atom_site_fract_y
 _atom_site_fract_z
 _atom_site_occupancy
  Lu  Lu0  1  -0.00000000  0.32050674  0.41443092  1
  Lu  Lu1  1  0.00000000  0.67949326  0.58556908  1
  Lu  Lu2  1  -0.00000000  0.82050674  0.08556908  1
  Lu  Lu3  1  0.00000000  0.17949326  0.91443092  1
  Lu  Lu4  1  0.00000000  0.94383321  0.37292516  1
  Lu  Lu5  1  -0.00000000  0.05616679  0.62707484  1
  Lu  Lu6  1  0.00000000  0.44383321  0.12707484  1
  Lu  Lu7  1  -0.00000000  0.55616679  0.87292516  1
  B  B8  1  0.50000000  0.55362803  0.43372213  1
  B  B9  1  0.50000000  0.44637197  0.56627787  1
  B  B10  1  0.50000000  0.05362803  0.06627787  1
  B  B11  1  0.50000000  0.94637197  0.93372213  1
  B  B12  1  0.50000000  0.74903916  0.42044843  1
  B  B13  1  0.50000000  0.25096084  0.57955157  1
  B  B14  1  0.50000000  0.24903916  0.07955157  1
  B  B15  1  0.50000000  0.75096084  0.92044843  1
  B  B16  1  0.50000000  0.79174692  0.26541525  1
  B  B17  1  0.50000000  0.20825308  0.73458475  1
  B  B18  1  0.50000000  0.29174692  0.23458475  1
  B  B19  1  0.50000000  0.70825308  0.76541525  1
  B  B20  1  0.50000000  0.63099334  0.18423037  1
  B  B21  1  0.50000000  0.36900666  0.81576963  1
  B  B22  1  0.50000000  0.13099334  0.31576963  1
  B  B23  1  0.50000000  0.86900666  0.68423037  1
  B  B24  1  0.50000000  0.98172614  0.21286357  1
  B  B25  1  0.50000000  0.01827386  0.78713643  1
  B  B26  1  0.50000000  0.48172614  0.28713643  1
  B  B27  1  0.50000000  0.51827386  0.71286357  1
  B  B28  1  0.50000000  0.60698572  0.02949304  1
  B  B29  1  0.50000000  0.39301428  0.97050696  1
  B  B30  1  0.50000000  0.10698572  0.47050696  1
  B  B31  1  0.50000000  0.89301428  0.52949304  1
  Ru  Ru32  1  -0.00000000  0.63792582  0.32084505  1
  Ru  Ru33  1  0.00000000  0.36207418  0.67915495  1
  Ru  Ru34  1  -0.00000000  0.13792582  0.17915495  1
  Ru  Ru35  1  -0.00000000  0.86207418  0.82084505  1
