# generated using pymatgen
data_Hg3Pb
_symmetry_space_group_name_H-M   'P 1'
_cell_length_a   6.86967899
_cell_length_b   6.86967899
_cell_length_c   5.14779307
_cell_angle_alpha   90.00000000
_cell_angle_beta   90.00000000
_cell_angle_gamma   119.99999723
_symmetry_Int_Tables_number   1
_chemical_formula_structural   Hg3Pb
_chemical_formula_sum   'Hg6 Pb2'
_cell_volume   210.38976677
_cell_formula_units_Z   2
loop_
 _symmetry_equiv_pos_site_id
 _symmetry_equiv_pos_as_xyz
  1  'x, y, z'
loop_
 _atom_site_type_symbol
 _atom_site_label
 _atom_site_symmetry_multiplicity
 _atom_site_fract_x
 _atom_site_fract_y
 _atom_site_fract_z
 _atom_site_occupancy
  Hg  Hg0  1  0.16183906  0.32367812  0.25000000  1
  Hg  Hg1  1  0.67632188  0.83816094  0.25000000  1
  Hg  Hg2  1  0.16183906  0.83816094  0.25000000  1
  Hg  Hg3  1  0.83816094  0.67632188  0.75000000  1
  Hg  Hg4  1  0.32367812  0.16183906  0.75000000  1
  Hg  Hg5  1  0.83816094  0.16183906  0.75000000  1
  Pb  Pb6  1  0.33333300  0.66666700  0.75000000  1
  Pb  Pb7  1  0.66666700  0.33333300  0.25000000  1
