# generated using pymatgen
data_BaCdSn
_symmetry_space_group_name_H-M   'P 1'
_cell_length_a   6.61149685
_cell_length_b   6.61149685
_cell_length_c   8.53680758
_cell_angle_alpha   50.08956269
_cell_angle_beta   50.08956269
_cell_angle_gamma   46.63648267
_symmetry_Int_Tables_number   1
_chemical_formula_structural   BaCdSn
_chemical_formula_sum   'Ba2 Cd2 Sn2'
_cell_volume   194.09802360
_cell_formula_units_Z   2
loop_
 _symmetry_equiv_pos_site_id
 _symmetry_equiv_pos_as_xyz
  1  'x, y, z'
loop_
 _atom_site_type_symbol
 _atom_site_label
 _atom_site_symmetry_multiplicity
 _atom_site_fract_x
 _atom_site_fract_y
 _atom_site_fract_z
 _atom_site_occupancy
  Ba  Ba0  1  0.54485019  0.54485019  0.70492822  1
  Ba  Ba1  1  0.45514981  0.45514981  0.29507178  1
  Cd  Cd2  1  0.15854701  0.15854701  0.27514357  1
  Cd  Cd3  1  0.84145299  0.84145299  0.72485643  1
  Sn  Sn4  1  0.83979088  0.83979088  0.09966851  1
  Sn  Sn5  1  0.16020912  0.16020912  0.90033149  1
