# generated using pymatgen
data_EuCdGe
_symmetry_space_group_name_H-M   'P 1'
_cell_length_a   4.54118816
_cell_length_b   7.60174153
_cell_length_c   8.47415982
_cell_angle_alpha   90.00009804
_cell_angle_beta   90.00000000
_cell_angle_gamma   90.00000000
_symmetry_Int_Tables_number   1
_chemical_formula_structural   EuCdGe
_chemical_formula_sum   'Eu4 Cd4 Ge4'
_cell_volume   292.53595110
_cell_formula_units_Z   4
loop_
 _symmetry_equiv_pos_site_id
 _symmetry_equiv_pos_as_xyz
  1  'x, y, z'
loop_
 _atom_site_type_symbol
 _atom_site_label
 _atom_site_symmetry_multiplicity
 _atom_site_fract_x
 _atom_site_fract_y
 _atom_site_fract_z
 _atom_site_occupancy
  Eu  Eu0  1  0.25000000  0.01545068  0.31147891  1
  Eu  Eu1  1  0.25000000  0.51545197  0.18852434  1
  Eu  Eu2  1  0.75000000  0.98452723  0.68851783  1
  Eu  Eu3  1  0.75000000  0.48452510  0.81147244  1
  Cd  Cd4  1  0.25000000  0.15431464  0.93255000  1
  Cd  Cd5  1  0.25000000  0.65430568  0.56744655  1
  Cd  Cd6  1  0.75000000  0.84573519  0.06737896  1
  Cd  Cd7  1  0.75000000  0.34573919  0.43263903  1
  Ge  Ge8  1  0.25000000  0.27060979  0.61020464  1
  Ge  Ge9  1  0.25000000  0.77061398  0.88978783  1
  Ge  Ge10  1  0.75000000  0.72936549  0.38984836  1
  Ge  Ge11  1  0.75000000  0.22935905  0.11015013  1
