# generated using pymatgen
data_Ho7PtI12
_symmetry_space_group_name_H-M   'P 1'
_cell_length_a   9.66289852
_cell_length_b   9.66289852
_cell_length_c   9.66289819
_cell_angle_alpha   107.38078188
_cell_angle_beta   107.38078186
_cell_angle_gamma   107.38079089
_symmetry_Int_Tables_number   1
_chemical_formula_structural   Ho7PtI12
_chemical_formula_sum   'Ho7 Pt1 I12'
_cell_volume   743.45128744
_cell_formula_units_Z   1
loop_
 _symmetry_equiv_pos_site_id
 _symmetry_equiv_pos_as_xyz
  1  'x, y, z'
loop_
 _atom_site_type_symbol
 _atom_site_label
 _atom_site_symmetry_multiplicity
 _atom_site_fract_x
 _atom_site_fract_y
 _atom_site_fract_z
 _atom_site_occupancy
  Ho  Ho0  1  0.39837451  0.46825467  0.19603393  1
  Ho  Ho1  1  0.19603393  0.39837451  0.46825467  1
  Ho  Ho2  1  0.46825467  0.19603393  0.39837451  1
  Ho  Ho3  1  0.60162549  0.53174533  0.80396607  1
  Ho  Ho4  1  0.80396607  0.60162549  0.53174533  1
  Ho  Ho5  1  0.53174533  0.80396607  0.60162549  1
  Ho  Ho6  1  -0.00000000  0.00000000  -0.00000000  1
  Pt  Pt7  1  0.50000000  0.50000000  0.50000000  1
  I  I8  1  0.02958285  0.34240567  0.10930684  1
  I  I9  1  0.10930684  0.02958285  0.34240567  1
  I  I10  1  0.34240567  0.10930684  0.02958285  1
  I  I11  1  0.97041715  0.65759433  0.89069316  1
  I  I12  1  0.89069316  0.97041715  0.65759433  1
  I  I13  1  0.65759433  0.89069316  0.97041715  1
  I  I14  1  0.72622180  0.57513918  0.17935219  1
  I  I15  1  0.17935219  0.72622180  0.57513918  1
  I  I16  1  0.57513918  0.17935219  0.72622180  1
  I  I17  1  0.27377820  0.42486082  0.82064781  1
  I  I18  1  0.82064781  0.27377820  0.42486082  1
  I  I19  1  0.42486082  0.82064781  0.27377820  1
