# generated using pymatgen
data_Ni3(AsO4)2
_symmetry_space_group_name_H-M   'P 1'
_cell_length_a   9.55258043
_cell_length_b   5.76382832
_cell_length_c   10.17200395
_cell_angle_alpha   87.11365739
_cell_angle_beta   90.00000000
_cell_angle_gamma   90.00000000
_symmetry_Int_Tables_number   1
_chemical_formula_structural   Ni3(AsO4)2
_chemical_formula_sum   'Ni12 As8 O32'
_cell_volume   559.35427187
_cell_formula_units_Z   4
loop_
 _symmetry_equiv_pos_site_id
 _symmetry_equiv_pos_as_xyz
  1  'x, y, z'
loop_
 _atom_site_type_symbol
 _atom_site_label
 _atom_site_symmetry_multiplicity
 _atom_site_fract_x
 _atom_site_fract_y
 _atom_site_fract_z
 _atom_site_occupancy
  Ni  Ni0  1  0.86486197  0.61511589  0.03520815  1
  Ni  Ni1  1  0.36486197  0.38488411  0.46479185  1
  Ni  Ni2  1  0.13513803  0.38488411  0.96479185  1
  Ni  Ni3  1  0.63513803  0.61511589  0.53520815  1
  Ni  Ni4  1  0.86349398  0.85813709  0.28464499  1
  Ni  Ni5  1  0.36349398  0.14186291  0.21535501  1
  Ni  Ni6  1  0.13650602  0.14186291  0.71535501  1
  Ni  Ni7  1  0.63650602  0.85813709  0.78464499  1
  Ni  Ni8  1  0.62271469  0.13632746  0.05783758  1
  Ni  Ni9  1  0.12271469  0.86367254  0.44216242  1
  Ni  Ni10  1  0.87728531  0.13632746  0.55783758  1
  Ni  Ni11  1  0.37728531  0.86367254  0.94216242  1
  As  As12  1  0.84462721  0.13198583  0.88218186  1
  As  As13  1  0.34462721  0.86801417  0.61781814  1
  As  As14  1  0.15537279  0.86801417  0.11781814  1
  As  As15  1  0.65537279  0.13198583  0.38218186  1
  As  As16  1  0.94364824  0.62447492  0.70500222  1
  As  As17  1  0.44364824  0.37552508  0.79499778  1
  As  As18  1  0.05635176  0.37552508  0.29499778  1
  As  As19  1  0.55635176  0.62447492  0.20500222  1
  O  O20  1  0.00749347  0.38351236  0.13353732  1
  O  O21  1  0.50749347  0.61648764  0.36646268  1
  O  O22  1  0.99250653  0.61648764  0.86646268  1
  O  O23  1  0.49250653  0.38351236  0.63353732  1
  O  O24  1  0.49582712  0.38287116  0.13217596  1
  O  O25  1  0.99582712  0.61712884  0.36782404  1
  O  O26  1  0.50417288  0.61712884  0.86782404  1
  O  O27  1  0.00417288  0.38287116  0.63217596  1
  O  O28  1  0.73485988  0.63052020  0.19570713  1
  O  O29  1  0.23485988  0.36947980  0.30429287  1
  O  O30  1  0.26514012  0.36947980  0.80429287  1
  O  O31  1  0.76514012  0.63052020  0.69570713  1
  O  O32  1  0.98807683  0.12671977  0.37721360  1
  O  O33  1  0.48807683  0.87328023  0.12278640  1
  O  O34  1  0.01192317  0.87328023  0.62278640  1
  O  O35  1  0.51192317  0.12671977  0.87721360  1
  O  O36  1  0.52163110  0.86951360  0.61808598  1
  O  O37  1  0.02163110  0.13048640  0.88191402  1
  O  O38  1  0.47836890  0.13048640  0.38191402  1
  O  O39  1  0.97836890  0.86951360  0.11808598  1
  O  O40  1  0.77520485  0.11313356  0.72862095  1
  O  O41  1  0.27520485  0.88686644  0.77137905  1
  O  O42  1  0.22479515  0.88686644  0.27137905  1
  O  O43  1  0.72479515  0.11313356  0.22862095  1
  O  O44  1  0.75442095  0.89367770  0.95380255  1
  O  O45  1  0.25442095  0.10632230  0.54619745  1
  O  O46  1  0.73316948  0.34408505  0.46654722  1
  O  O47  1  0.74557905  0.89367770  0.45380255  1
  O  O48  1  0.76683052  0.34408505  0.96654722  1
  O  O49  1  0.26683052  0.65591495  0.53345278  1
  O  O50  1  0.23316948  0.65591495  0.03345278  1
  O  O51  1  0.24557905  0.10632230  0.04619745  1
