# generated using pymatgen
data_CsP(HO)2
_symmetry_space_group_name_H-M   'P 1'
_cell_length_a   6.66450509
_cell_length_b   7.95760706
_cell_length_c   8.38496078
_cell_angle_alpha   90.00000000
_cell_angle_beta   90.00000000
_cell_angle_gamma   90.00000000
_symmetry_Int_Tables_number   1
_chemical_formula_structural   CsP(HO)2
_chemical_formula_sum   'Cs4 P4 H8 O8'
_cell_volume   444.68392448
_cell_formula_units_Z   4
loop_
 _symmetry_equiv_pos_site_id
 _symmetry_equiv_pos_as_xyz
  1  'x, y, z'
loop_
 _atom_site_type_symbol
 _atom_site_label
 _atom_site_symmetry_multiplicity
 _atom_site_fract_x
 _atom_site_fract_y
 _atom_site_fract_z
 _atom_site_occupancy
  Cs  Cs0  1  0.25000000  0.36449781  0.13421641  1
  Cs  Cs1  1  0.25000000  0.13550219  0.63421641  1
  Cs  Cs2  1  0.75000000  0.63550219  0.86578359  1
  Cs  Cs3  1  0.75000000  0.86449781  0.36578359  1
  P  P4  1  0.75000000  0.17113050  0.88863327  1
  P  P5  1  0.75000000  0.32886950  0.38863327  1
  P  P6  1  0.25000000  0.82886950  0.11136673  1
  P  P7  1  0.25000000  0.67113050  0.61136673  1
  H  H8  1  0.75000000  0.06691331  0.02586265  1
  H  H9  1  0.75000000  0.43308669  0.52586265  1
  H  H10  1  0.25000000  0.93308669  0.97413735  1
  H  H11  1  0.25000000  0.56691331  0.47413735  1
  H  H12  1  0.75000000  0.04933675  0.76444056  1
  H  H13  1  0.75000000  0.45066325  0.26444056  1
  H  H14  1  0.25000000  0.95066325  0.23555944  1
  H  H15  1  0.25000000  0.54933675  0.73555944  1
  O  O16  1  0.55592974  0.26673662  0.88235388  1
  O  O17  1  0.94407026  0.23326338  0.38235388  1
  O  O18  1  0.05592974  0.73326338  0.11764612  1
  O  O19  1  0.44407026  0.76673662  0.61764612  1
  O  O20  1  0.44407026  0.73326338  0.11764612  1
  O  O21  1  0.05592974  0.76673662  0.61764612  1
  O  O22  1  0.94407026  0.26673662  0.88235388  1
  O  O23  1  0.55592974  0.23326338  0.38235388  1
