# generated using pymatgen
data_Ba2CoO4
_symmetry_space_group_name_H-M   'P 1'
_cell_length_a   7.66566952
_cell_length_b   5.99310287
_cell_length_c   11.81548141
_cell_angle_alpha   61.96993419
_cell_angle_beta   90.00000000
_cell_angle_gamma   90.00000000
_symmetry_Int_Tables_number   1
_chemical_formula_structural   Ba2CoO4
_chemical_formula_sum   'Ba8 Co4 O16'
_cell_volume   479.14495708
_cell_formula_units_Z   4
loop_
 _symmetry_equiv_pos_site_id
 _symmetry_equiv_pos_as_xyz
  1  'x, y, z'
loop_
 _atom_site_type_symbol
 _atom_site_label
 _atom_site_symmetry_multiplicity
 _atom_site_fract_x
 _atom_site_fract_y
 _atom_site_fract_z
 _atom_site_occupancy
  Ba  Ba0  1  0.00457334  0.95651934  0.31023906  1
  Ba  Ba1  1  0.50457334  0.04348066  0.18976094  1
  Ba  Ba2  1  0.99542666  0.04348066  0.68976094  1
  Ba  Ba3  1  0.49542666  0.95651934  0.81023906  1
  Ba  Ba4  1  0.64963727  0.32164215  0.41871441  1
  Ba  Ba5  1  0.14963727  0.67835785  0.08128559  1
  Ba  Ba6  1  0.35036273  0.67835785  0.58128559  1
  Ba  Ba7  1  0.85036273  0.32164215  0.91871441  1
  Co  Co8  1  0.22442520  0.33610735  0.41840400  1
  Co  Co9  1  0.72442520  0.66389265  0.08159600  1
  Co  Co10  1  0.77557480  0.66389265  0.58159600  1
  Co  Co11  1  0.27557480  0.33610735  0.91840400  1
  O  O12  1  0.31805003  0.22950667  0.57627092  1
  O  O13  1  0.81805003  0.77049333  0.92372908  1
  O  O14  1  0.68194997  0.77049333  0.42372908  1
  O  O15  1  0.18194997  0.22950667  0.07627092  1
  O  O16  1  0.32599115  0.13825849  0.36072575  1
  O  O17  1  0.82599115  0.86174151  0.13927425  1
  O  O18  1  0.67400885  0.86174151  0.63927425  1
  O  O19  1  0.17400885  0.13825849  0.86072575  1
  O  O20  1  0.28452180  0.65889317  0.32210012  1
  O  O21  1  0.78452180  0.34110683  0.17789988  1
  O  O22  1  0.71547820  0.34110683  0.67789988  1
  O  O23  1  0.21547820  0.65889317  0.82210012  1
  O  O24  1  0.50602472  0.30151600  0.92249950  1
  O  O25  1  0.00602472  0.69848400  0.57750050  1
  O  O26  1  0.49397528  0.69848400  0.07750050  1
  O  O27  1  0.99397528  0.30151600  0.42249950  1
