# generated using pymatgen
data_AsPd2
_symmetry_space_group_name_H-M   'P 1'
_cell_length_a   3.67192462
_cell_length_b   6.65965350
_cell_length_c   6.65973867
_cell_angle_alpha   119.99936173
_cell_angle_beta   90.00000000
_cell_angle_gamma   90.00000000
_symmetry_Int_Tables_number   1
_chemical_formula_structural   AsPd2
_chemical_formula_sum   'As3 Pd6'
_cell_volume   141.03795513
_cell_formula_units_Z   3
loop_
 _symmetry_equiv_pos_site_id
 _symmetry_equiv_pos_as_xyz
  1  'x, y, z'
loop_
 _atom_site_type_symbol
 _atom_site_label
 _atom_site_symmetry_multiplicity
 _atom_site_fract_x
 _atom_site_fract_y
 _atom_site_fract_z
 _atom_site_occupancy
  As  As0  1  -0.00000000  0.33333784  0.66672098  1
  As  As1  1  -0.00000000  0.66661686  0.33327902  1
  As  As2  1  0.50000000  -0.00001005  -0.00000000  1
  Pd  Pd3  1  -0.00000000  0.26510320  0.00000000  1
  Pd  Pd4  1  -0.00000000  0.73489037  0.73490911  1
  Pd  Pd5  1  0.00000000  0.99998026  0.26508989  1
  Pd  Pd6  1  0.50000000  0.60707298  -0.00000000  1
  Pd  Pd7  1  0.50000000  0.39293958  0.39296663  1
  Pd  Pd8  1  0.50000000  0.99997195  0.60703337  1
