# generated using pymatgen
data_PrNdAl6
_symmetry_space_group_name_H-M   'P 1'
_cell_length_a   6.54378693
_cell_length_b   6.54378693
_cell_length_c   4.59899601
_cell_angle_alpha   90.00000000
_cell_angle_beta   90.00000000
_cell_angle_gamma   120.00000661
_symmetry_Int_Tables_number   1
_chemical_formula_structural   PrNdAl6
_chemical_formula_sum   'Pr1 Nd1 Al6'
_cell_volume   170.55008335
_cell_formula_units_Z   1
loop_
 _symmetry_equiv_pos_site_id
 _symmetry_equiv_pos_as_xyz
  1  'x, y, z'
loop_
 _atom_site_type_symbol
 _atom_site_label
 _atom_site_symmetry_multiplicity
 _atom_site_fract_x
 _atom_site_fract_y
 _atom_site_fract_z
 _atom_site_occupancy
  Pr  Pr0  1  0.33333300  0.66666700  -0.00000000  1
  Nd  Nd1  1  0.66666700  0.33333300  0.50000000  1
  Al  Al2  1  0.72325364  0.86162632  0.50000000  1
  Al  Al3  1  0.13837368  0.86162632  0.50000000  1
  Al  Al4  1  0.13837368  0.27674636  0.50000000  1
  Al  Al5  1  0.27793363  0.13896582  -0.00000000  1
  Al  Al6  1  0.86103418  0.13896582  -0.00000000  1
  Al  Al7  1  0.86103418  0.72206637  0.00000000  1
