# generated using pymatgen
data_Gd2Cr2C3
_symmetry_space_group_name_H-M   'P 1'
_cell_length_a   5.47595319
_cell_length_b   5.47595319
_cell_length_c   5.62681339
_cell_angle_alpha   75.62417286
_cell_angle_beta   75.62417286
_cell_angle_gamma   36.36739465
_symmetry_Int_Tables_number   1
_chemical_formula_structural   Gd2Cr2C3
_chemical_formula_sum   'Gd2 Cr2 C3'
_cell_volume   96.57112106
_cell_formula_units_Z   1
loop_
 _symmetry_equiv_pos_site_id
 _symmetry_equiv_pos_as_xyz
  1  'x, y, z'
loop_
 _atom_site_type_symbol
 _atom_site_label
 _atom_site_symmetry_multiplicity
 _atom_site_fract_x
 _atom_site_fract_y
 _atom_site_fract_z
 _atom_site_occupancy
  Gd  Gd0  1  0.39660948  0.39660948  0.81810675  1
  Gd  Gd1  1  0.60339052  0.60339052  0.18189325  1
  Cr  Cr2  1  0.15737888  0.15737888  0.60782319  1
  Cr  Cr3  1  0.84262112  0.84262112  0.39217681  1
  C  C4  1  0.00000000  0.00000000  0.50000000  1
  C  C5  1  0.71004613  0.71004613  0.72594987  1
  C  C6  1  0.28995387  0.28995387  0.27405013  1
