# generated using pymatgen
data_EuHfS3
_symmetry_space_group_name_H-M   'P 1'
_cell_length_a   6.60695663
_cell_length_b   7.07850207
_cell_length_c   9.64170674
_cell_angle_alpha   90.00000000
_cell_angle_beta   90.00000000
_cell_angle_gamma   90.00000000
_symmetry_Int_Tables_number   1
_chemical_formula_structural   EuHfS3
_chemical_formula_sum   'Eu4 Hf4 S12'
_cell_volume   450.91713331
_cell_formula_units_Z   4
loop_
 _symmetry_equiv_pos_site_id
 _symmetry_equiv_pos_as_xyz
  1  'x, y, z'
loop_
 _atom_site_type_symbol
 _atom_site_label
 _atom_site_symmetry_multiplicity
 _atom_site_fract_x
 _atom_site_fract_y
 _atom_site_fract_z
 _atom_site_occupancy
  Eu  Eu0  1  0.46889601  0.58916338  0.25000000  1
  Eu  Eu1  1  0.03110399  0.08916338  0.25000000  1
  Eu  Eu2  1  0.53110399  0.41083662  0.75000000  1
  Eu  Eu3  1  0.96889601  0.91083662  0.75000000  1
  Hf  Hf4  1  -0.00000000  0.50000000  0.00000000  1
  Hf  Hf5  1  0.50000000  0.00000000  0.50000000  1
  Hf  Hf6  1  -0.00000000  0.50000000  0.50000000  1
  Hf  Hf7  1  0.50000000  0.00000000  0.00000000  1
  S  S8  1  0.89374204  0.47874331  0.25000000  1
  S  S9  1  0.60625796  0.97874331  0.25000000  1
  S  S10  1  0.10625796  0.52125669  0.75000000  1
  S  S11  1  0.39374204  0.02125669  0.75000000  1
  S  S12  1  0.68617436  0.69337457  0.94696340  1
  S  S13  1  0.81382564  0.19337457  0.55303660  1
  S  S14  1  0.31382564  0.30662543  0.44696340  1
  S  S15  1  0.18617436  0.80662543  0.05303660  1
  S  S16  1  0.31382564  0.30662543  0.05303660  1
  S  S17  1  0.18617436  0.80662543  0.44696340  1
  S  S18  1  0.68617436  0.69337457  0.55303660  1
  S  S19  1  0.81382564  0.19337457  0.94696340  1
