# generated using pymatgen
data_Yb2(NiB2)3
_symmetry_space_group_name_H-M   'P 1'
_cell_length_a   5.72425598
_cell_length_b   5.72425598
_cell_length_c   3.41565163
_cell_angle_alpha   90.00000000
_cell_angle_beta   90.00000000
_cell_angle_gamma   96.69505719
_symmetry_Int_Tables_number   1
_chemical_formula_structural   Yb2(NiB2)3
_chemical_formula_sum   'Yb2 Ni3 B6'
_cell_volume   111.15779881
_cell_formula_units_Z   1
loop_
 _symmetry_equiv_pos_site_id
 _symmetry_equiv_pos_as_xyz
  1  'x, y, z'
loop_
 _atom_site_type_symbol
 _atom_site_label
 _atom_site_symmetry_multiplicity
 _atom_site_fract_x
 _atom_site_fract_y
 _atom_site_fract_z
 _atom_site_occupancy
  Yb  Yb0  1  0.27572851  0.72427149  0.00000000  1
  Yb  Yb1  1  0.72427149  0.27572851  0.00000000  1
  Ni  Ni2  1  0.77334331  0.77334331  0.00000000  1
  Ni  Ni3  1  0.22665669  0.22665669  0.00000000  1
  Ni  Ni4  1  0.00000000  0.00000000  0.50000000  1
  B  B5  1  0.61255096  0.61255096  0.50000000  1
  B  B6  1  0.38744904  0.38744904  0.50000000  1
  B  B7  1  0.61628352  0.91672930  0.50000000  1
  B  B8  1  0.38371648  0.08327070  0.50000000  1
  B  B9  1  0.91672930  0.61628352  0.50000000  1
  B  B10  1  0.08327070  0.38371648  0.50000000  1
