# generated using pymatgen
data_K2PtO6
_symmetry_space_group_name_H-M   'P 1'
_cell_length_a   4.86543101
_cell_length_b   4.86543083
_cell_length_c   4.86543080
_cell_angle_alpha   83.18769312
_cell_angle_beta   83.18769759
_cell_angle_gamma   83.18768985
_symmetry_Int_Tables_number   1
_chemical_formula_structural   K2PtO6
_chemical_formula_sum   'K2 Pt1 O6'
_cell_volume   112.91573863
_cell_formula_units_Z   1
loop_
 _symmetry_equiv_pos_site_id
 _symmetry_equiv_pos_as_xyz
  1  'x, y, z'
loop_
 _atom_site_type_symbol
 _atom_site_label
 _atom_site_symmetry_multiplicity
 _atom_site_fract_x
 _atom_site_fract_y
 _atom_site_fract_z
 _atom_site_occupancy
  K  K0  1  0.34984768  0.34984768  0.34984768  1
  K  K1  1  0.65015232  0.65015232  0.65015232  1
  Pt  Pt2  1  -0.00000000  0.00000000  0.00000000  1
  O  O3  1  0.07909230  0.90279499  0.40630109  1
  O  O4  1  0.40630109  0.07909230  0.90279499  1
  O  O5  1  0.90279499  0.40630109  0.07909230  1
  O  O6  1  0.92090770  0.09720501  0.59369891  1
  O  O7  1  0.59369891  0.92090770  0.09720501  1
  O  O8  1  0.09720501  0.59369891  0.92090770  1
