# generated using pymatgen
data_Gd3SbO3
_symmetry_space_group_name_H-M   'P 1'
_cell_length_a   6.91377806
_cell_length_b   6.91377806
_cell_length_c   11.86369134
_cell_angle_alpha   62.76827420
_cell_angle_beta   62.76827420
_cell_angle_gamma   32.87066754
_symmetry_Int_Tables_number   1
_chemical_formula_structural   Gd3SbO3
_chemical_formula_sum   'Gd6 Sb2 O6'
_cell_volume   270.49839221
_cell_formula_units_Z   2
loop_
 _symmetry_equiv_pos_site_id
 _symmetry_equiv_pos_as_xyz
  1  'x, y, z'
loop_
 _atom_site_type_symbol
 _atom_site_label
 _atom_site_symmetry_multiplicity
 _atom_site_fract_x
 _atom_site_fract_y
 _atom_site_fract_z
 _atom_site_occupancy
  Gd  Gd0  1  0.11927060  0.11927060  0.55825038  1
  Gd  Gd1  1  0.88072940  0.88072940  0.44174962  1
  Gd  Gd2  1  0.34288114  0.34288114  0.20762044  1
  Gd  Gd3  1  0.65711886  0.65711886  0.79237956  1
  Gd  Gd4  1  0.87166077  0.87166077  0.89968860  1
  Gd  Gd5  1  0.12833923  0.12833923  0.10031140  1
  Sb  Sb6  1  0.38054977  0.38054977  0.68079312  1
  Sb  Sb7  1  0.61945023  0.61945023  0.31920688  1
  O  O8  1  0.31012237  0.31012237  0.40980267  1
  O  O9  1  0.68987763  0.68987763  0.59019733  1
  O  O10  1  0.33691450  0.33691450  0.01385765  1
  O  O11  1  0.66308550  0.66308550  0.98614235  1
  O  O12  1  0.93621993  0.93621993  0.19691976  1
  O  O13  1  0.06378007  0.06378007  0.80308024  1
