# generated using pymatgen
data_SrF2
_symmetry_space_group_name_H-M   'P 1'
_cell_length_a   3.78128709
_cell_length_b   6.28018423
_cell_length_c   7.42542698
_cell_angle_alpha   90.00000000
_cell_angle_beta   90.00000000
_cell_angle_gamma   90.00000000
_symmetry_Int_Tables_number   1
_chemical_formula_structural   SrF2
_chemical_formula_sum   'Sr4 F8'
_cell_volume   176.33294774
_cell_formula_units_Z   4
loop_
 _symmetry_equiv_pos_site_id
 _symmetry_equiv_pos_as_xyz
  1  'x, y, z'
loop_
 _atom_site_type_symbol
 _atom_site_label
 _atom_site_symmetry_multiplicity
 _atom_site_fract_x
 _atom_site_fract_y
 _atom_site_fract_z
 _atom_site_occupancy
  Sr  Sr0  1  0.75000000  0.25179069  0.61434978  1
  Sr  Sr1  1  0.75000000  0.75179069  0.88565022  1
  Sr  Sr2  1  0.25000000  0.74820931  0.38565022  1
  Sr  Sr3  1  0.25000000  0.24820931  0.11434978  1
  F  F4  1  0.75000000  0.14316028  0.92841951  1
  F  F5  1  0.75000000  0.64316028  0.57158049  1
  F  F6  1  0.25000000  0.85683972  0.07158049  1
  F  F7  1  0.25000000  0.35683972  0.42841951  1
  F  F8  1  0.75000000  0.52530154  0.16844971  1
  F  F9  1  0.75000000  0.02530154  0.33155029  1
  F  F10  1  0.25000000  0.47469846  0.83155029  1
  F  F11  1  0.25000000  0.97469846  0.66844971  1
