# generated using pymatgen
data_SiSbPt
_symmetry_space_group_name_H-M   'P 1'
_cell_length_a   6.35479539
_cell_length_b   6.37737788
_cell_length_c   11.55009134
_cell_angle_alpha   90.00000000
_cell_angle_beta   90.00000000
_cell_angle_gamma   90.00000000
_symmetry_Int_Tables_number   1
_chemical_formula_structural   SiSbPt
_chemical_formula_sum   'Si8 Sb8 Pt8'
_cell_volume   468.08976116
_cell_formula_units_Z   8
loop_
 _symmetry_equiv_pos_site_id
 _symmetry_equiv_pos_as_xyz
  1  'x, y, z'
loop_
 _atom_site_type_symbol
 _atom_site_label
 _atom_site_symmetry_multiplicity
 _atom_site_fract_x
 _atom_site_fract_y
 _atom_site_fract_z
 _atom_site_occupancy
  Si  Si0  1  0.85490579  0.26538730  0.42609969  1
  Si  Si1  1  0.35490579  0.23461270  0.57389931  1
  Si  Si2  1  0.14509421  0.76538730  0.07390031  1
  Si  Si3  1  0.64509421  0.73461270  0.92610069  1
  Si  Si4  1  0.14509421  0.73461270  0.57389931  1
  Si  Si5  1  0.64509421  0.76538730  0.42609969  1
  Si  Si6  1  0.85490579  0.23461270  0.92610069  1
  Si  Si7  1  0.35490579  0.26538730  0.07390031  1
  Sb  Sb8  1  0.11608922  0.00591773  0.32715202  1
  Sb  Sb9  1  0.61608922  0.49408227  0.67284798  1
  Sb  Sb10  1  0.88391078  0.50591773  0.17284798  1
  Sb  Sb11  1  0.38391078  0.99408227  0.82715202  1
  Sb  Sb12  1  0.88391078  0.99408227  0.67284798  1
  Sb  Sb13  1  0.38391078  0.50591773  0.32715202  1
  Sb  Sb14  1  0.11608922  0.49408227  0.82715202  1
  Sb  Sb15  1  0.61608922  0.00591773  0.17284798  1
  Pt  Pt16  1  0.51119690  0.11840684  0.39343743  1
  Pt  Pt17  1  0.01119690  0.38159316  0.60656257  1
  Pt  Pt18  1  0.48880310  0.61840684  0.10656257  1
  Pt  Pt19  1  0.98880310  0.88159316  0.89343743  1
  Pt  Pt20  1  0.48880310  0.88159316  0.60656257  1
  Pt  Pt21  1  0.98880310  0.61840684  0.39343743  1
  Pt  Pt22  1  0.51119690  0.38159316  0.89343743  1
  Pt  Pt23  1  0.01119690  0.11840684  0.10656257  1
