# generated using pymatgen
data_BaBe2Si2O7
_symmetry_space_group_name_H-M   'P 1'
_cell_length_a   4.67121500
_cell_length_b   4.91484483
_cell_length_c   11.65117595
_cell_angle_alpha   90.00000000
_cell_angle_beta   90.00000000
_cell_angle_gamma   90.00000000
_symmetry_Int_Tables_number   1
_chemical_formula_structural   BaBe2Si2O7
_chemical_formula_sum   'Ba2 Be4 Si4 O14'
_cell_volume   267.49115661
_cell_formula_units_Z   2
loop_
 _symmetry_equiv_pos_site_id
 _symmetry_equiv_pos_as_xyz
  1  'x, y, z'
loop_
 _atom_site_type_symbol
 _atom_site_label
 _atom_site_symmetry_multiplicity
 _atom_site_fract_x
 _atom_site_fract_y
 _atom_site_fract_z
 _atom_site_occupancy
  Ba  Ba0  1  0.01083423  0.20458697  -0.00000000  1
  Ba  Ba1  1  0.51083423  0.79541303  0.50000000  1
  Be  Be2  1  0.51716065  0.16835545  0.74867879  1
  Be  Be3  1  0.01716065  0.83164455  0.75132121  1
  Be  Be4  1  0.51716065  0.16835545  0.25132121  1
  Be  Be5  1  0.01716065  0.83164455  0.24867879  1
  Si  Si6  1  0.03110991  0.32491803  0.62846839  1
  Si  Si7  1  0.53110991  0.67508197  0.87153161  1
  Si  Si8  1  0.53110991  0.67508197  0.12846839  1
  Si  Si9  1  0.03110991  0.32491803  0.37153161  1
  O  O10  1  0.41899554  0.77262965  -0.00000000  1
  O  O11  1  0.91899554  0.22737035  0.50000000  1
  O  O12  1  0.37017384  0.26853856  0.36725213  1
  O  O13  1  0.87017384  0.73146144  0.13274787  1
  O  O14  1  0.37017384  0.26853856  0.63274787  1
  O  O15  1  0.87017384  0.73146144  0.86725213  1
  O  O16  1  0.96388864  0.64449278  0.35994607  1
  O  O17  1  0.46388864  0.35550722  0.14005393  1
  O  O18  1  0.46388864  0.35550722  0.85994607  1
  O  O19  1  0.96388864  0.64449278  0.64005393  1
  O  O20  1  0.36795308  0.86681895  0.22260585  1
  O  O21  1  0.86795308  0.13318105  0.27739415  1
  O  O22  1  0.86795308  0.13318105  0.72260585  1
  O  O23  1  0.36795308  0.86681895  0.77739415  1
