# generated using pymatgen
data_UMn2SiC
_symmetry_space_group_name_H-M   'P 1'
_cell_length_a   5.73331517
_cell_length_b   5.73331517
_cell_length_c   7.01556648
_cell_angle_alpha   90.00000000
_cell_angle_beta   90.00000000
_cell_angle_gamma   143.02330852
_symmetry_Int_Tables_number   1
_chemical_formula_structural   UMn2SiC
_chemical_formula_sum   'U2 Mn4 Si2 C2'
_cell_volume   138.70842678
_cell_formula_units_Z   2
loop_
 _symmetry_equiv_pos_site_id
 _symmetry_equiv_pos_as_xyz
  1  'x, y, z'
loop_
 _atom_site_type_symbol
 _atom_site_label
 _atom_site_symmetry_multiplicity
 _atom_site_fract_x
 _atom_site_fract_y
 _atom_site_fract_z
 _atom_site_occupancy
  U  U0  1  0.54892528  0.45107472  0.25000000  1
  U  U1  1  0.45107472  0.54892528  0.75000000  1
  Mn  Mn2  1  0.83387216  0.16612784  0.05409380  1
  Mn  Mn3  1  0.16612784  0.83387216  0.94590620  1
  Mn  Mn4  1  0.16612784  0.83387216  0.55409380  1
  Mn  Mn5  1  0.83387216  0.16612784  0.44590620  1
  Si  Si6  1  0.26971754  0.73028246  0.25000000  1
  Si  Si7  1  0.73028246  0.26971754  0.75000000  1
  C  C8  1  -0.00000000  0.00000000  -0.00000000  1
  C  C9  1  -0.00000000  0.00000000  0.50000000  1
