# generated using pymatgen
data_Nd(SiIr)2
_symmetry_space_group_name_H-M   'P 1'
_cell_length_a   4.13602105
_cell_length_b   4.13602105
_cell_length_c   9.80348226
_cell_angle_alpha   90.00000000
_cell_angle_beta   90.00000000
_cell_angle_gamma   90.00000000
_symmetry_Int_Tables_number   1
_chemical_formula_structural   Nd(SiIr)2
_chemical_formula_sum   'Nd2 Si4 Ir4'
_cell_volume   167.70493711
_cell_formula_units_Z   2
loop_
 _symmetry_equiv_pos_site_id
 _symmetry_equiv_pos_as_xyz
  1  'x, y, z'
loop_
 _atom_site_type_symbol
 _atom_site_label
 _atom_site_symmetry_multiplicity
 _atom_site_fract_x
 _atom_site_fract_y
 _atom_site_fract_z
 _atom_site_occupancy
  Nd  Nd0  1  0.75000000  0.75000000  0.25471801  1
  Nd  Nd1  1  0.25000000  0.25000000  0.74528199  1
  Si  Si2  1  0.75000000  0.25000000  0.50000000  1
  Si  Si3  1  0.25000000  0.75000000  0.50000000  1
  Si  Si4  1  0.75000000  0.75000000  0.87084380  1
  Si  Si5  1  0.25000000  0.25000000  0.12915620  1
  Ir  Ir6  1  0.75000000  0.25000000  0.00000000  1
  Ir  Ir7  1  0.25000000  0.75000000  0.00000000  1
  Ir  Ir8  1  0.75000000  0.75000000  0.62638525  1
  Ir  Ir9  1  0.25000000  0.25000000  0.37361475  1
