# generated using pymatgen
data_TmAlGe
_symmetry_space_group_name_H-M   'P 1'
_cell_length_a   5.51458574
_cell_length_b   5.51458574
_cell_length_c   5.68016714
_cell_angle_alpha   90.00000000
_cell_angle_beta   90.00000000
_cell_angle_gamma   137.51261281
_symmetry_Int_Tables_number   1
_chemical_formula_structural   TmAlGe
_chemical_formula_sum   'Tm2 Al2 Ge2'
_cell_volume   116.67179858
_cell_formula_units_Z   2
loop_
 _symmetry_equiv_pos_site_id
 _symmetry_equiv_pos_as_xyz
  1  'x, y, z'
loop_
 _atom_site_type_symbol
 _atom_site_label
 _atom_site_symmetry_multiplicity
 _atom_site_fract_x
 _atom_site_fract_y
 _atom_site_fract_z
 _atom_site_occupancy
  Tm  Tm0  1  0.69013357  0.30986643  0.25000000  1
  Tm  Tm1  1  0.30986643  0.69013357  0.75000000  1
  Al  Al2  1  -0.00000000  0.00000000  0.50000000  1
  Al  Al3  1  -0.00000000  0.00000000  -0.00000000  1
  Ge  Ge4  1  0.39309035  0.60690965  0.25000000  1
  Ge  Ge5  1  0.60690965  0.39309035  0.75000000  1
