# generated using pymatgen
data_Eu2InPt2
_symmetry_space_group_name_H-M   'P 1'
_cell_length_a   5.88823791
_cell_length_b   5.88828045
_cell_length_c   8.27504741
_cell_angle_alpha   77.56849747
_cell_angle_beta   77.56861694
_cell_angle_gamma   59.51567195
_symmetry_Int_Tables_number   1
_chemical_formula_structural   Eu2InPt2
_chemical_formula_sum   'Eu4 In2 Pt4'
_cell_volume   239.52685394
_cell_formula_units_Z   2
loop_
 _symmetry_equiv_pos_site_id
 _symmetry_equiv_pos_as_xyz
  1  'x, y, z'
loop_
 _atom_site_type_symbol
 _atom_site_label
 _atom_site_symmetry_multiplicity
 _atom_site_fract_x
 _atom_site_fract_y
 _atom_site_fract_z
 _atom_site_occupancy
  Eu  Eu0  1  0.79498228  0.50067350  0.35180365  1
  Eu  Eu1  1  0.49932089  0.20502747  0.14819702  1
  Eu  Eu2  1  0.20501772  0.49932650  0.64819635  1
  Eu  Eu3  1  0.50067911  0.79497253  0.85180298  1
  In  In4  1  0.14983480  0.85015825  0.24999431  1
  In  In5  1  0.85016520  0.14984175  0.75000569  1
  Pt  Pt6  1  0.00008147  0.72559960  0.00178813  1
  Pt  Pt7  1  0.27434859  0.99993019  0.49821291  1
  Pt  Pt8  1  0.99991853  0.27440040  0.99821187  1
  Pt  Pt9  1  0.72565141  0.00006981  0.50178709  1
