# generated using pymatgen
data_TmAsS
_symmetry_space_group_name_H-M   'P 1'
_cell_length_a   3.77069479
_cell_length_b   3.79198906
_cell_length_c   16.73250495
_cell_angle_alpha   90.00000000
_cell_angle_beta   90.00000000
_cell_angle_gamma   90.00000000
_symmetry_Int_Tables_number   1
_chemical_formula_structural   TmAsS
_chemical_formula_sum   'Tm4 As4 S4'
_cell_volume   239.24860751
_cell_formula_units_Z   4
loop_
 _symmetry_equiv_pos_site_id
 _symmetry_equiv_pos_as_xyz
  1  'x, y, z'
loop_
 _atom_site_type_symbol
 _atom_site_label
 _atom_site_symmetry_multiplicity
 _atom_site_fract_x
 _atom_site_fract_y
 _atom_site_fract_z
 _atom_site_occupancy
  Tm  Tm0  1  0.25000000  0.23736912  0.85412938  1
  Tm  Tm1  1  0.25000000  0.26263088  0.35412938  1
  Tm  Tm2  1  0.75000000  0.76263088  0.14587062  1
  Tm  Tm3  1  0.75000000  0.73736912  0.64587062  1
  As  As4  1  0.75000000  0.22584226  0.50088987  1
  As  As5  1  0.75000000  0.27415774  0.00088987  1
  As  As6  1  0.25000000  0.77415774  0.49911013  1
  As  As7  1  0.25000000  0.72584226  -0.00088987  1
  S  S8  1  0.25000000  0.23987128  0.68737549  1
  S  S9  1  0.25000000  0.26012872  0.18737549  1
  S  S10  1  0.75000000  0.76012872  0.31262451  1
  S  S11  1  0.75000000  0.73987128  0.81262451  1
