# generated using pymatgen
data_YGaIr
_symmetry_space_group_name_H-M   'P 1'
_cell_length_a   4.31124174
_cell_length_b   6.83240243
_cell_length_c   7.72520084
_cell_angle_alpha   90.00000000
_cell_angle_beta   90.00000000
_cell_angle_gamma   90.00000000
_symmetry_Int_Tables_number   1
_chemical_formula_structural   YGaIr
_chemical_formula_sum   'Y4 Ga4 Ir4'
_cell_volume   227.55458620
_cell_formula_units_Z   4
loop_
 _symmetry_equiv_pos_site_id
 _symmetry_equiv_pos_as_xyz
  1  'x, y, z'
loop_
 _atom_site_type_symbol
 _atom_site_label
 _atom_site_symmetry_multiplicity
 _atom_site_fract_x
 _atom_site_fract_y
 _atom_site_fract_z
 _atom_site_occupancy
  Y  Y0  1  0.25000000  0.97854318  0.31113529  1
  Y  Y1  1  0.25000000  0.47854318  0.18886471  1
  Y  Y2  1  0.75000000  0.02145682  0.68886471  1
  Y  Y3  1  0.75000000  0.52145682  0.81113529  1
  Ga  Ga4  1  0.25000000  0.34313321  0.56922453  1
  Ga  Ga5  1  0.25000000  0.84313321  0.93077547  1
  Ga  Ga6  1  0.75000000  0.65686679  0.43077547  1
  Ga  Ga7  1  0.75000000  0.15686679  0.06922453  1
  Ir  Ir8  1  0.25000000  0.22803713  0.89040573  1
  Ir  Ir9  1  0.25000000  0.72803713  0.60959427  1
  Ir  Ir10  1  0.75000000  0.77196287  0.10959427  1
  Ir  Ir11  1  0.75000000  0.27196287  0.39040573  1
