# generated using pymatgen
data_Er7FeI12
_symmetry_space_group_name_H-M   'P 1'
_cell_length_a   9.59762524
_cell_length_b   9.59762587
_cell_length_c   9.59762567
_cell_angle_alpha   107.06470687
_cell_angle_beta   107.06470478
_cell_angle_gamma   107.06470287
_symmetry_Int_Tables_number   1
_chemical_formula_structural   Er7FeI12
_chemical_formula_sum   'Er7 Fe1 I12'
_cell_volume   734.96658097
_cell_formula_units_Z   1
loop_
 _symmetry_equiv_pos_site_id
 _symmetry_equiv_pos_as_xyz
  1  'x, y, z'
loop_
 _atom_site_type_symbol
 _atom_site_label
 _atom_site_symmetry_multiplicity
 _atom_site_fract_x
 _atom_site_fract_y
 _atom_site_fract_z
 _atom_site_occupancy
  Er  Er0  1  0.91010153  0.97983419  0.71339558  1
  Er  Er1  1  0.71339558  0.91010153  0.97983419  1
  Er  Er2  1  0.97983419  0.71339558  0.91010153  1
  Er  Er3  1  0.08989847  0.02016581  0.28660442  1
  Er  Er4  1  0.28660442  0.08989847  0.02016581  1
  Er  Er5  1  0.02016581  0.28660442  0.08989847  1
  Er  Er6  1  0.50000000  0.50000000  0.50000000  1
  Fe  Fe7  1  -0.00000000  0.00000000  -0.00000000  1
  I  I8  1  0.84045180  0.61386810  0.53575456  1
  I  I9  1  0.53575456  0.84045180  0.61386810  1
  I  I10  1  0.61386810  0.53575456  0.84045180  1
  I  I11  1  0.15954820  0.38613190  0.46424544  1
  I  I12  1  0.46424544  0.15954820  0.38613190  1
  I  I13  1  0.38613190  0.46424544  0.15954820  1
  I  I14  1  0.92759809  0.32251380  0.77261304  1
  I  I15  1  0.77261304  0.92759809  0.32251380  1
  I  I16  1  0.32251380  0.77261304  0.92759809  1
  I  I17  1  0.07240191  0.67748620  0.22738696  1
  I  I18  1  0.22738696  0.07240191  0.67748620  1
  I  I19  1  0.67748620  0.22738696  0.07240191  1
