# generated using pymatgen
data_NdLuSe3
_symmetry_space_group_name_H-M   'P 1'
_cell_length_a   6.82891091
_cell_length_b   6.82891091
_cell_length_c   9.91660609
_cell_angle_alpha   90.00000000
_cell_angle_beta   90.00000000
_cell_angle_gamma   145.82869190
_symmetry_Int_Tables_number   1
_chemical_formula_structural   NdLuSe3
_chemical_formula_sum   'Nd2 Lu2 Se6'
_cell_volume   259.74459154
_cell_formula_units_Z   2
loop_
 _symmetry_equiv_pos_site_id
 _symmetry_equiv_pos_as_xyz
  1  'x, y, z'
loop_
 _atom_site_type_symbol
 _atom_site_label
 _atom_site_symmetry_multiplicity
 _atom_site_fract_x
 _atom_site_fract_y
 _atom_site_fract_z
 _atom_site_occupancy
  Nd  Nd0  1  0.25196677  0.74803323  0.75000000  1
  Nd  Nd1  1  0.74803323  0.25196677  0.25000000  1
  Lu  Lu2  1  0.00000000  -0.00000000  0.00000000  1
  Lu  Lu3  1  0.00000000  -0.00000000  0.50000000  1
  Se  Se4  1  0.08554158  0.91445842  0.25000000  1
  Se  Se5  1  0.91445842  0.08554158  0.75000000  1
  Se  Se6  1  0.64262239  0.35737761  0.56193082  1
  Se  Se7  1  0.35737761  0.64262239  0.43806918  1
  Se  Se8  1  0.64262239  0.35737761  0.93806918  1
  Se  Se9  1  0.35737761  0.64262239  0.06193082  1
