# generated using pymatgen
data_PrAlCu
_symmetry_space_group_name_H-M   'P 1'
_cell_length_a   7.27740773
_cell_length_b   7.27741179
_cell_length_c   4.07708158
_cell_angle_alpha   90.00000000
_cell_angle_beta   90.00000000
_cell_angle_gamma   120.00001290
_symmetry_Int_Tables_number   1
_chemical_formula_structural   PrAlCu
_chemical_formula_sum   'Pr3 Al3 Cu3'
_cell_volume   186.99656738
_cell_formula_units_Z   3
loop_
 _symmetry_equiv_pos_site_id
 _symmetry_equiv_pos_as_xyz
  1  'x, y, z'
loop_
 _atom_site_type_symbol
 _atom_site_label
 _atom_site_symmetry_multiplicity
 _atom_site_fract_x
 _atom_site_fract_y
 _atom_site_fract_z
 _atom_site_occupancy
  Pr  Pr0  1  0.41985125  0.41985125  0.50000000  1
  Pr  Pr1  1  0.58014875  -0.00000000  0.50000000  1
  Pr  Pr2  1  0.00000000  0.58014875  0.50000000  1
  Al  Al3  1  0.77630045  0.77630045  -0.00000000  1
  Al  Al4  1  0.22369955  -0.00000000  -0.00000000  1
  Al  Al5  1  0.00000000  0.22369955  0.00000000  1
  Cu  Cu6  1  0.66666700  0.33333300  0.00000000  1
  Cu  Cu7  1  0.33333300  0.66666700  0.00000000  1
  Cu  Cu8  1  -0.00000000  0.00000000  0.50000000  1
