# generated using pymatgen
data_Ba3V2S4O3
_symmetry_space_group_name_H-M   'P 1'
_cell_length_a   6.00517877
_cell_length_b   10.23055573
_cell_length_c   10.20895922
_cell_angle_alpha   60.03567269
_cell_angle_beta   90.00072088
_cell_angle_gamma   89.99795692
_symmetry_Int_Tables_number   1
_chemical_formula_structural   Ba3V2S4O3
_chemical_formula_sum   'Ba6 V4 S8 O6'
_cell_volume   543.36700904
_cell_formula_units_Z   2
loop_
 _symmetry_equiv_pos_site_id
 _symmetry_equiv_pos_as_xyz
  1  'x, y, z'
loop_
 _atom_site_type_symbol
 _atom_site_label
 _atom_site_symmetry_multiplicity
 _atom_site_fract_x
 _atom_site_fract_y
 _atom_site_fract_z
 _atom_site_occupancy
  Ba  Ba0  1  0.16932355  0.93227998  0.68978023  1
  Ba  Ba1  1  0.67012005  0.30966835  0.62249689  1
  Ba  Ba2  1  0.66978534  0.62056381  0.06807355  1
  Ba  Ba3  1  0.16977741  0.37942535  0.93191985  1
  Ba  Ba4  1  0.17013499  0.69034880  0.37750973  1
  Ba  Ba5  1  0.66932137  0.06772710  0.31019619  1
  V  V6  1  0.81160042  0.66674672  0.66629705  1
  V  V7  1  0.43540777  0.00033522  0.00013987  1
  V  V8  1  0.31156664  0.33327565  0.33369313  1
  V  V9  1  0.93541369  -0.00035253  0.99986610  1
  S  S10  1  0.94387322  0.33289576  0.33340307  1
  S  S11  1  0.44391839  0.66707895  0.66661378  1
  S  S12  1  0.18613970  0.78953031  0.03574323  1
  S  S13  1  0.68581208  0.96326901  0.82845030  1
  S  S14  1  0.68612814  0.21045883  0.96426752  1
  S  S15  1  0.18581338  0.03672691  0.17154672  1
  S  S16  1  0.18556291  0.17309210  0.79261568  1
  S  S17  1  0.68560153  0.82688590  0.20739457  1
  O  O18  1  0.41261186  0.36902911  0.16293858  1
  O  O19  1  0.91297027  0.83718697  0.53164745  1
  O  O20  1  0.91310841  0.53218068  0.63033527  1
  O  O21  1  0.41304112  0.46781825  0.36969984  1
  O  O22  1  0.41293362  0.16282378  0.46832334  1
  O  O23  1  0.91265414  0.63100398  0.83704706  1
