# generated using pymatgen
data_TiMo3
_symmetry_space_group_name_H-M   'P 1'
_cell_length_a   3.16520997
_cell_length_b   4.42103518
_cell_length_c   5.23615612
_cell_angle_alpha   114.97129722
_cell_angle_beta   107.59252717
_cell_angle_gamma   90.00000000
_symmetry_Int_Tables_number   1
_chemical_formula_structural   TiMo3
_chemical_formula_sum   'Ti1 Mo3'
_cell_volume   62.62199546
_cell_formula_units_Z   1
loop_
 _symmetry_equiv_pos_site_id
 _symmetry_equiv_pos_as_xyz
  1  'x, y, z'
loop_
 _atom_site_type_symbol
 _atom_site_label
 _atom_site_symmetry_multiplicity
 _atom_site_fract_x
 _atom_site_fract_y
 _atom_site_fract_z
 _atom_site_occupancy
  Ti  Ti0  1  -0.00000000  0.50000000  -0.00000000  1
  Mo  Mo1  1  0.24340963  0.24340963  0.48681825  1
  Mo  Mo2  1  0.75659037  0.75659037  0.51318175  1
  Mo  Mo3  1  0.50000000  -0.00000000  -0.00000000  1
