# generated using pymatgen
data_Zr4CN3
_symmetry_space_group_name_H-M   'P 1'
_cell_length_a   10.84250458
_cell_length_b   10.84250458
_cell_length_c   10.84250422
_cell_angle_alpha   17.32898350
_cell_angle_beta   17.32898350
_cell_angle_gamma   17.32898330
_symmetry_Int_Tables_number   1
_chemical_formula_structural   Zr4CN3
_chemical_formula_sum   'Zr4 C1 N3'
_cell_volume   98.68132095
_cell_formula_units_Z   1
loop_
 _symmetry_equiv_pos_site_id
 _symmetry_equiv_pos_as_xyz
  1  'x, y, z'
loop_
 _atom_site_type_symbol
 _atom_site_label
 _atom_site_symmetry_multiplicity
 _atom_site_fract_x
 _atom_site_fract_y
 _atom_site_fract_z
 _atom_site_occupancy
  Zr  Zr0  1  0.87424301  0.87424301  0.87424301  1
  Zr  Zr1  1  0.12575699  0.12575699  0.12575699  1
  Zr  Zr2  1  0.37460479  0.37460479  0.37460479  1
  Zr  Zr3  1  0.62539521  0.62539521  0.62539521  1
  C  C4  1  -0.00000000  -0.00000000  0.00000000  1
  N  N5  1  0.24850572  0.24850572  0.24850572  1
  N  N6  1  0.50000000  0.50000000  0.50000000  1
  N  N7  1  0.75149428  0.75149428  0.75149428  1
