# generated using pymatgen
data_ZrMn2
_symmetry_space_group_name_H-M   'P 1'
_cell_length_a   5.26316328
_cell_length_b   5.26309977
_cell_length_c   17.17397082
_cell_angle_alpha   90.00000000
_cell_angle_beta   90.00000000
_cell_angle_gamma   119.99965243
_symmetry_Int_Tables_number   1
_chemical_formula_structural   ZrMn2
_chemical_formula_sum   'Zr8 Mn16'
_cell_volume   411.99440611
_cell_formula_units_Z   8
loop_
 _symmetry_equiv_pos_site_id
 _symmetry_equiv_pos_as_xyz
  1  'x, y, z'
loop_
 _atom_site_type_symbol
 _atom_site_label
 _atom_site_symmetry_multiplicity
 _atom_site_fract_x
 _atom_site_fract_y
 _atom_site_fract_z
 _atom_site_occupancy
  Zr  Zr0  1  0.00000312  0.00000206  0.09380273  1
  Zr  Zr1  1  -0.00000312  -0.00000206  0.59380273  1
  Zr  Zr2  1  -0.00000312  -0.00000206  0.90619727  1
  Zr  Zr3  1  0.00000312  0.00000206  0.40619727  1
  Zr  Zr4  1  0.33333214  0.66666507  0.84408760  1
  Zr  Zr5  1  0.66666786  0.33333493  0.34408760  1
  Zr  Zr6  1  0.66666786  0.33333493  0.15591240  1
  Zr  Zr7  1  0.33333214  0.66666507  0.65591240  1
  Mn  Mn8  1  0.33333596  0.66666748  0.12451554  1
  Mn  Mn9  1  0.66666404  0.33333252  0.62451554  1
  Mn  Mn10  1  0.66666404  0.33333252  0.87548446  1
  Mn  Mn11  1  0.33333596  0.66666748  0.37548446  1
  Mn  Mn12  1  0.50000000  -0.00000000  -0.00000000  1
  Mn  Mn13  1  0.50000000  0.50000000  0.50000000  1
  Mn  Mn14  1  -0.00000000  0.50000000  0.50000000  1
  Mn  Mn15  1  -0.00000000  0.50000000  -0.00000000  1
  Mn  Mn16  1  0.50000000  0.50000000  -0.00000000  1
  Mn  Mn17  1  0.50000000  -0.00000000  0.50000000  1
  Mn  Mn18  1  0.16658898  0.33317267  0.25000000  1
  Mn  Mn19  1  0.83341202  0.16658369  0.75000000  1
  Mn  Mn20  1  0.33316689  0.16658344  0.75000000  1
  Mn  Mn21  1  0.66683311  0.83341656  0.25000000  1
  Mn  Mn22  1  0.16658798  0.83341631  0.25000000  1
  Mn  Mn23  1  0.83341102  0.66682733  0.75000000  1
