# generated using pymatgen
data_ErPdPb
_symmetry_space_group_name_H-M   'P 1'
_cell_length_a   7.70591557
_cell_length_b   7.70591557
_cell_length_c   3.88644501
_cell_angle_alpha   90.00000000
_cell_angle_beta   90.00000000
_cell_angle_gamma   119.99999239
_symmetry_Int_Tables_number   1
_chemical_formula_structural   ErPdPb
_chemical_formula_sum   'Er3 Pd3 Pb3'
_cell_volume   199.86267015
_cell_formula_units_Z   3
loop_
 _symmetry_equiv_pos_site_id
 _symmetry_equiv_pos_as_xyz
  1  'x, y, z'
loop_
 _atom_site_type_symbol
 _atom_site_label
 _atom_site_symmetry_multiplicity
 _atom_site_fract_x
 _atom_site_fract_y
 _atom_site_fract_z
 _atom_site_occupancy
  Er  Er0  1  0.40006716  0.40006716  0.50000000  1
  Er  Er1  1  0.59993284  0.00000000  0.50000000  1
  Er  Er2  1  0.00000000  0.59993284  0.50000000  1
  Pd  Pd3  1  0.66666700  0.33333300  0.00000000  1
  Pd  Pd4  1  0.33333300  0.66666700  -0.00000000  1
  Pd  Pd5  1  0.00000000  -0.00000000  0.50000000  1
  Pb  Pb6  1  0.73307362  0.73307362  0.00000000  1
  Pb  Pb7  1  0.26692638  -0.00000000  -0.00000000  1
  Pb  Pb8  1  -0.00000000  0.26692638  -0.00000000  1
