# generated using pymatgen
data_TmAlNi
_symmetry_space_group_name_H-M   'P 1'
_cell_length_a   6.82763977
_cell_length_b   6.82763977
_cell_length_c   3.84963543
_cell_angle_alpha   90.00000000
_cell_angle_beta   90.00000000
_cell_angle_gamma   120.00000181
_symmetry_Int_Tables_number   1
_chemical_formula_structural   TmAlNi
_chemical_formula_sum   'Tm3 Al3 Ni3'
_cell_volume   155.41446042
_cell_formula_units_Z   3
loop_
 _symmetry_equiv_pos_site_id
 _symmetry_equiv_pos_as_xyz
  1  'x, y, z'
loop_
 _atom_site_type_symbol
 _atom_site_label
 _atom_site_symmetry_multiplicity
 _atom_site_fract_x
 _atom_site_fract_y
 _atom_site_fract_z
 _atom_site_occupancy
  Tm  Tm0  1  0.00000000  0.41634789  0.50000000  1
  Tm  Tm1  1  0.58365211  0.58365211  0.50000000  1
  Tm  Tm2  1  0.41634789  0.00000000  0.50000000  1
  Al  Al3  1  -0.00000000  0.76441962  -0.00000000  1
  Al  Al4  1  0.23558038  0.23558038  -0.00000000  1
  Al  Al5  1  0.76441962  -0.00000000  0.00000000  1
  Ni  Ni6  1  0.33333300  0.66666700  0.00000000  1
  Ni  Ni7  1  0.66666700  0.33333300  -0.00000000  1
  Ni  Ni8  1  0.00000000  -0.00000000  0.50000000  1
