# generated using pymatgen
data_GdSnPd
_symmetry_space_group_name_H-M   'P 1'
_cell_length_a   4.65008947
_cell_length_b   7.31311105
_cell_length_c   7.95465153
_cell_angle_alpha   90.00072363
_cell_angle_beta   90.00000000
_cell_angle_gamma   90.00000000
_symmetry_Int_Tables_number   1
_chemical_formula_structural   GdSnPd
_chemical_formula_sum   'Gd4 Sn4 Pd4'
_cell_volume   270.51081726
_cell_formula_units_Z   4
loop_
 _symmetry_equiv_pos_site_id
 _symmetry_equiv_pos_as_xyz
  1  'x, y, z'
loop_
 _atom_site_type_symbol
 _atom_site_label
 _atom_site_symmetry_multiplicity
 _atom_site_fract_x
 _atom_site_fract_y
 _atom_site_fract_z
 _atom_site_occupancy
  Gd  Gd0  1  0.25000000  0.01062243  0.29551364  1
  Gd  Gd1  1  0.25000000  0.51062209  0.20449301  1
  Gd  Gd2  1  0.75000000  0.98937073  0.70450787  1
  Gd  Gd3  1  0.75000000  0.48937175  0.79549638  1
  Sn  Sn4  1  0.25000000  0.19150660  0.91262541  1
  Sn  Sn5  1  0.25000000  0.69150865  0.58737604  1
  Sn  Sn6  1  0.75000000  0.80848069  0.08738100  1
  Sn  Sn7  1  0.75000000  0.30847794  0.41261957  1
  Pd  Pd8  1  0.25000000  0.29706466  0.58429689  1
  Pd  Pd9  1  0.25000000  0.79706153  0.91569393  1
  Pd  Pd10  1  0.75000000  0.70295556  0.41570716  1
  Pd  Pd11  1  0.75000000  0.20295836  0.08428910  1
