# generated using pymatgen
data_Ca2GaClO8
_symmetry_space_group_name_H-M   'P 1'
_cell_length_a   6.20858487
_cell_length_b   6.20858487
_cell_length_c   7.22005745
_cell_angle_alpha   64.53536145
_cell_angle_beta   64.53536145
_cell_angle_gamma   59.99999070
_symmetry_Int_Tables_number   1
_chemical_formula_structural   Ca2GaClO8
_chemical_formula_sum   'Ca2 Ga1 Cl1 O8'
_cell_volume   209.22025635
_cell_formula_units_Z   1
loop_
 _symmetry_equiv_pos_site_id
 _symmetry_equiv_pos_as_xyz
  1  'x, y, z'
loop_
 _atom_site_type_symbol
 _atom_site_label
 _atom_site_symmetry_multiplicity
 _atom_site_fract_x
 _atom_site_fract_y
 _atom_site_fract_z
 _atom_site_occupancy
  Ca  Ca0  1  0.30795400  0.30795400  0.07613800  1
  Ca  Ca1  1  0.69204600  0.69204600  0.92386200  1
  Ga  Ga2  1  0.00000000  0.00000000  0.00000000  1
  Cl  Cl3  1  0.50000000  0.50000000  0.50000000  1
  O  O4  1  0.26944800  0.91961500  0.12134300  1
  O  O5  1  0.91961500  0.68959400  0.12134300  1
  O  O6  1  0.68959400  0.26944800  0.12134300  1
  O  O7  1  0.73055200  0.08038500  0.87865700  1
  O  O8  1  0.08038500  0.31040600  0.87865700  1
  O  O9  1  0.31040600  0.73055200  0.87865700  1
  O  O10  1  0.17664800  0.17664800  0.47005600  1
  O  O11  1  0.82335200  0.82335200  0.52994400  1
