# generated using pymatgen
data_Ti3VS6
_symmetry_space_group_name_H-M   'P 1'
_cell_length_a   6.78561946
_cell_length_b   6.78561946
_cell_length_c   6.78561894
_cell_angle_alpha   51.69071484
_cell_angle_beta   51.69071491
_cell_angle_gamma   51.69071350
_symmetry_Int_Tables_number   1
_chemical_formula_structural   Ti3VS6
_chemical_formula_sum   'Ti3 V1 S6'
_cell_volume   177.73177131
_cell_formula_units_Z   1
loop_
 _symmetry_equiv_pos_site_id
 _symmetry_equiv_pos_as_xyz
  1  'x, y, z'
loop_
 _atom_site_type_symbol
 _atom_site_label
 _atom_site_symmetry_multiplicity
 _atom_site_fract_x
 _atom_site_fract_y
 _atom_site_fract_z
 _atom_site_occupancy
  Ti  Ti0  1  0.00000000  0.00000000  -0.00000000  1
  Ti  Ti1  1  0.33064059  0.33064059  0.33064059  1
  Ti  Ti2  1  0.66935941  0.66935941  0.66935941  1
  V  V3  1  0.50000000  0.50000000  0.50000000  1
  S  S4  1  0.91348227  0.58650873  0.25276276  1
  S  S5  1  0.58650873  0.25276276  0.91348227  1
  S  S6  1  0.25276276  0.91348227  0.58650873  1
  S  S7  1  0.74723724  0.08651773  0.41349127  1
  S  S8  1  0.41349127  0.74723724  0.08651773  1
  S  S9  1  0.08651773  0.41349127  0.74723724  1
