# generated using pymatgen
data_YbMgPd
_symmetry_space_group_name_H-M   'P 1'
_cell_length_a   4.13146914
_cell_length_b   7.01189823
_cell_length_c   8.55607656
_cell_angle_alpha   90.00000000
_cell_angle_beta   90.00000000
_cell_angle_gamma   90.00000000
_symmetry_Int_Tables_number   1
_chemical_formula_structural   YbMgPd
_chemical_formula_sum   'Yb4 Mg4 Pd4'
_cell_volume   247.86475605
_cell_formula_units_Z   4
loop_
 _symmetry_equiv_pos_site_id
 _symmetry_equiv_pos_as_xyz
  1  'x, y, z'
loop_
 _atom_site_type_symbol
 _atom_site_label
 _atom_site_symmetry_multiplicity
 _atom_site_fract_x
 _atom_site_fract_y
 _atom_site_fract_z
 _atom_site_occupancy
  Yb  Yb0  1  0.25000000  0.53975971  0.17633809  1
  Yb  Yb1  1  0.75000000  0.46024029  0.82366191  1
  Yb  Yb2  1  0.25000000  0.03975971  0.32366191  1
  Yb  Yb3  1  0.75000000  0.96024029  0.67633809  1
  Mg  Mg4  1  0.25000000  0.63635504  0.55847173  1
  Mg  Mg5  1  0.75000000  0.36364496  0.44152827  1
  Mg  Mg6  1  0.25000000  0.13635504  0.94152827  1
  Mg  Mg7  1  0.75000000  0.86364496  0.05847173  1
  Pd  Pd8  1  0.75000000  0.75545415  0.37166785  1
  Pd  Pd9  1  0.25000000  0.24454585  0.62833215  1
  Pd  Pd10  1  0.75000000  0.25545415  0.12833215  1
  Pd  Pd11  1  0.25000000  0.74454585  0.87166785  1
