# generated using pymatgen
data_Zn2MoWO6
_symmetry_space_group_name_H-M   'P 1'
_cell_length_a   5.29986400
_cell_length_b   5.33568648
_cell_length_c   5.63668033
_cell_angle_alpha   118.16097362
_cell_angle_beta   89.34500609
_cell_angle_gamma   119.37846305
_symmetry_Int_Tables_number   1
_chemical_formula_structural   Zn2MoWO6
_chemical_formula_sum   'Zn2 Mo1 W1 O6'
_cell_volume   117.32272167
_cell_formula_units_Z   1
loop_
 _symmetry_equiv_pos_site_id
 _symmetry_equiv_pos_as_xyz
  1  'x, y, z'
loop_
 _atom_site_type_symbol
 _atom_site_label
 _atom_site_symmetry_multiplicity
 _atom_site_fract_x
 _atom_site_fract_y
 _atom_site_fract_z
 _atom_site_occupancy
  Zn  Zn0  1  0.73180700  0.27306800  0.19044000  1
  Zn  Zn1  1  0.23115500  0.76618200  0.67234900  1
  Mo  Mo2  1  0.50661300  0.48499600  0.52195500  1
  W  W3  1  0.00576200  0.98569700  0.01910500  1
  O  O4  1  0.62738400  0.71794700  0.80502300  1
  O  O5  1  0.38069900  0.19786800  0.28873300  1
  O  O6  1  0.90561300  0.37271600  0.79148900  1
  O  O7  1  0.24062100  0.08094200  0.78504500  1
  O  O8  1  0.78100600  0.89059400  0.27252500  1
  O  O9  1  0.10615500  0.60333900  0.28706800  1
