# generated using pymatgen
data_Tm2AlSi2
_symmetry_space_group_name_H-M   'P 1'
_cell_length_a   4.04388239
_cell_length_b   5.49579374
_cell_length_c   5.49579385
_cell_angle_alpha   61.37375344
_cell_angle_beta   68.41342993
_cell_angle_gamma   68.41342303
_symmetry_Int_Tables_number   1
_chemical_formula_structural   Tm2AlSi2
_chemical_formula_sum   'Tm2 Al1 Si2'
_cell_volume   96.90393790
_cell_formula_units_Z   1
loop_
 _symmetry_equiv_pos_site_id
 _symmetry_equiv_pos_as_xyz
  1  'x, y, z'
loop_
 _atom_site_type_symbol
 _atom_site_label
 _atom_site_symmetry_multiplicity
 _atom_site_fract_x
 _atom_site_fract_y
 _atom_site_fract_z
 _atom_site_occupancy
  Tm  Tm0  1  0.78951301  0.71048699  0.71048699  1
  Tm  Tm1  1  0.21048699  0.28951301  0.28951301  1
  Al  Al2  1  -0.00000000  0.00000000  -0.00000000  1
  Si  Si3  1  0.50000000  0.28938997  0.71061003  1
  Si  Si4  1  0.50000000  0.71061003  0.28938997  1
