# generated using pymatgen
data_Nd(GeIr)2
_symmetry_space_group_name_H-M   'P 1'
_cell_length_a   4.26672632
_cell_length_b   4.26672632
_cell_length_c   10.05425804
_cell_angle_alpha   90.00000000
_cell_angle_beta   90.00000000
_cell_angle_gamma   90.00000000
_symmetry_Int_Tables_number   1
_chemical_formula_structural   Nd(GeIr)2
_chemical_formula_sum   'Nd2 Ge4 Ir4'
_cell_volume   183.03729999
_cell_formula_units_Z   2
loop_
 _symmetry_equiv_pos_site_id
 _symmetry_equiv_pos_as_xyz
  1  'x, y, z'
loop_
 _atom_site_type_symbol
 _atom_site_label
 _atom_site_symmetry_multiplicity
 _atom_site_fract_x
 _atom_site_fract_y
 _atom_site_fract_z
 _atom_site_occupancy
  Nd  Nd0  1  0.00000000  0.50000000  0.25566320  1
  Nd  Nd1  1  0.50000000  0.00000000  0.74433680  1
  Ge  Ge2  1  0.00000000  0.00000000  0.50000000  1
  Ge  Ge3  1  0.50000000  0.50000000  0.50000000  1
  Ge  Ge4  1  0.00000000  0.50000000  0.86902052  1
  Ge  Ge5  1  0.50000000  -0.00000000  0.13097948  1
  Ir  Ir6  1  -0.00000000  -0.00000000  -0.00000000  1
  Ir  Ir7  1  0.50000000  0.50000000  -0.00000000  1
  Ir  Ir8  1  -0.00000000  0.50000000  0.62674760  1
  Ir  Ir9  1  0.50000000  0.00000000  0.37325240  1
