# generated using pymatgen
data_Tb3Pm
_symmetry_space_group_name_H-M   'P 1'
_cell_length_a   7.30837298
_cell_length_b   7.30837298
_cell_length_c   5.84627009
_cell_angle_alpha   90.00000000
_cell_angle_beta   90.00000000
_cell_angle_gamma   120.00000252
_symmetry_Int_Tables_number   1
_chemical_formula_structural   Tb3Pm
_chemical_formula_sum   'Tb6 Pm2'
_cell_volume   270.42753058
_cell_formula_units_Z   2
loop_
 _symmetry_equiv_pos_site_id
 _symmetry_equiv_pos_as_xyz
  1  'x, y, z'
loop_
 _atom_site_type_symbol
 _atom_site_label
 _atom_site_symmetry_multiplicity
 _atom_site_fract_x
 _atom_site_fract_y
 _atom_site_fract_z
 _atom_site_occupancy
  Tb  Tb0  1  0.83483217  0.16516783  0.75000000  1
  Tb  Tb1  1  0.33033767  0.16516783  0.75000000  1
  Tb  Tb2  1  0.83483217  0.66966233  0.75000000  1
  Tb  Tb3  1  0.16516783  0.83483217  0.25000000  1
  Tb  Tb4  1  0.66966233  0.83483217  0.25000000  1
  Tb  Tb5  1  0.16516783  0.33033767  0.25000000  1
  Pm  Pm6  1  0.66666700  0.33333300  0.25000000  1
  Pm  Pm7  1  0.33333300  0.66666700  0.75000000  1
