# generated using pymatgen
data_ZrUC2
_symmetry_space_group_name_H-M   'P 1'
_cell_length_a   5.98676129
_cell_length_b   5.98676129
_cell_length_c   5.98676132
_cell_angle_alpha   32.90193819
_cell_angle_beta   32.90193819
_cell_angle_gamma   32.90193262
_symmetry_Int_Tables_number   1
_chemical_formula_structural   ZrUC2
_chemical_formula_sum   'Zr1 U1 C2'
_cell_volume   56.33508094
_cell_formula_units_Z   1
loop_
 _symmetry_equiv_pos_site_id
 _symmetry_equiv_pos_as_xyz
  1  'x, y, z'
loop_
 _atom_site_type_symbol
 _atom_site_label
 _atom_site_symmetry_multiplicity
 _atom_site_fract_x
 _atom_site_fract_y
 _atom_site_fract_z
 _atom_site_occupancy
  Zr  Zr0  1  0.50000000  0.50000000  0.50000000  1
  U  U1  1  0.00000000  0.00000000  0.00000000  1
  C  C2  1  0.75072982  0.75072982  0.75072982  1
  C  C3  1  0.24927018  0.24927118  0.24927118  1
