# generated using pymatgen
data_TbAlCu
_symmetry_space_group_name_H-M   'P 1'
_cell_length_a   7.02032142
_cell_length_b   7.02032142
_cell_length_c   4.00588808
_cell_angle_alpha   90.00000000
_cell_angle_beta   90.00000000
_cell_angle_gamma   119.99998469
_symmetry_Int_Tables_number   1
_chemical_formula_structural   TbAlCu
_chemical_formula_sum   'Tb3 Al3 Cu3'
_cell_volume   170.97928729
_cell_formula_units_Z   3
loop_
 _symmetry_equiv_pos_site_id
 _symmetry_equiv_pos_as_xyz
  1  'x, y, z'
loop_
 _atom_site_type_symbol
 _atom_site_label
 _atom_site_symmetry_multiplicity
 _atom_site_fract_x
 _atom_site_fract_y
 _atom_site_fract_z
 _atom_site_occupancy
  Tb  Tb0  1  0.41491317  0.41491317  0.50000000  1
  Tb  Tb1  1  0.58508683  0.00000000  0.50000000  1
  Tb  Tb2  1  0.00000000  0.58508683  0.50000000  1
  Al  Al3  1  0.76755311  0.76755311  0.00000000  1
  Al  Al4  1  0.23244689  -0.00000000  -0.00000000  1
  Al  Al5  1  -0.00000000  0.23244689  -0.00000000  1
  Cu  Cu6  1  0.66666700  0.33333300  -0.00000000  1
  Cu  Cu7  1  0.33333300  0.66666700  -0.00000000  1
  Cu  Cu8  1  -0.00000000  -0.00000000  0.50000000  1
