# generated using pymatgen
data_Ba2Co3O7
_symmetry_space_group_name_H-M   'P 1'
_cell_length_a   3.73390600
_cell_length_b   3.74828200
_cell_length_c   12.99713500
_cell_angle_alpha   90.00000000
_cell_angle_beta   90.00000000
_cell_angle_gamma   90.00000000
_symmetry_Int_Tables_number   1
_chemical_formula_structural   Ba2Co3O7
_chemical_formula_sum   'Ba2 Co3 O7'
_cell_volume   181.90442667
_cell_formula_units_Z   1
loop_
 _symmetry_equiv_pos_site_id
 _symmetry_equiv_pos_as_xyz
  1  'x, y, z'
loop_
 _atom_site_type_symbol
 _atom_site_label
 _atom_site_symmetry_multiplicity
 _atom_site_fract_x
 _atom_site_fract_y
 _atom_site_fract_z
 _atom_site_occupancy
  Ba  Ba0  1  0.00000000  0.00000000  0.80743300  1
  Ba  Ba1  1  0.00000000  0.00000000  0.19332200  1
  Co  Co2  1  0.50000000  0.50000000  0.62541500  1
  Co  Co3  1  0.50000000  0.50000000  0.37297500  1
  Co  Co4  1  0.50000000  0.50000000  0.00015100  1
  O  O5  1  0.50000000  0.00000000  0.99986700  1
  O  O6  1  0.00000000  0.50000000  0.64195000  1
  O  O7  1  0.00000000  0.50000000  0.35289300  1
  O  O8  1  0.50000000  0.00000000  0.63965900  1
  O  O9  1  0.50000000  0.00000000  0.36848000  1
  O  O10  1  0.50000000  0.50000000  0.86133200  1
  O  O11  1  0.50000000  0.50000000  0.13845600  1
