# generated using pymatgen
data_SrCaZn2
_symmetry_space_group_name_H-M   'P 1'
_cell_length_a   4.46066695
_cell_length_b   6.14643449
_cell_length_c   8.49265903
_cell_angle_alpha   90.00000000
_cell_angle_beta   90.00000000
_cell_angle_gamma   90.00000000
_symmetry_Int_Tables_number   1
_chemical_formula_structural   SrCaZn2
_chemical_formula_sum   'Sr2 Ca2 Zn4'
_cell_volume   232.84490729
_cell_formula_units_Z   2
loop_
 _symmetry_equiv_pos_site_id
 _symmetry_equiv_pos_as_xyz
  1  'x, y, z'
loop_
 _atom_site_type_symbol
 _atom_site_label
 _atom_site_symmetry_multiplicity
 _atom_site_fract_x
 _atom_site_fract_y
 _atom_site_fract_z
 _atom_site_occupancy
  Sr  Sr0  1  0.50000000  0.36343379  0.32368057  1
  Sr  Sr1  1  0.50000000  0.63656621  0.82368057  1
  Ca  Ca2  1  -0.00000000  0.13315105  0.68152526  1
  Ca  Ca3  1  -0.00000000  0.86684895  0.18152526  1
  Zn  Zn4  1  0.00000000  0.67122120  0.52206817  1
  Zn  Zn5  1  -0.00000000  0.32877880  0.02206817  1
  Zn  Zn6  1  0.50000000  0.85709816  0.47272600  1
  Zn  Zn7  1  0.50000000  0.14290184  0.97272600  1
