# generated using pymatgen
data_TmSiPt2
_symmetry_space_group_name_H-M   'P 1'
_cell_length_a   5.45436662
_cell_length_b   6.92261296
_cell_length_c   7.20648349
_cell_angle_alpha   90.00000000
_cell_angle_beta   90.00000000
_cell_angle_gamma   90.00000000
_symmetry_Int_Tables_number   1
_chemical_formula_structural   TmSiPt2
_chemical_formula_sum   'Tm4 Si4 Pt8'
_cell_volume   272.10578383
_cell_formula_units_Z   4
loop_
 _symmetry_equiv_pos_site_id
 _symmetry_equiv_pos_as_xyz
  1  'x, y, z'
loop_
 _atom_site_type_symbol
 _atom_site_label
 _atom_site_symmetry_multiplicity
 _atom_site_fract_x
 _atom_site_fract_y
 _atom_site_fract_z
 _atom_site_occupancy
  Tm  Tm0  1  0.36296494  0.75000000  0.02570098  1
  Tm  Tm1  1  0.13703506  0.75000000  0.52570098  1
  Tm  Tm2  1  0.63703506  0.25000000  0.97429802  1
  Tm  Tm3  1  0.86296494  0.25000000  0.47429802  1
  Si  Si4  1  0.63510335  0.75000000  0.37994380  1
  Si  Si5  1  0.86489665  0.75000000  0.87994380  1
  Si  Si6  1  0.36489665  0.25000000  0.62005620  1
  Si  Si7  1  0.13510335  0.25000000  0.12005620  1
  Pt  Pt8  1  0.90933532  0.55025031  0.18295796  1
  Pt  Pt9  1  0.59066468  0.94974969  0.68295796  1
  Pt  Pt10  1  0.09066468  0.05025031  0.81704204  1
  Pt  Pt11  1  0.40933532  0.44974969  0.31704204  1
  Pt  Pt12  1  0.09066468  0.44974969  0.81704204  1
  Pt  Pt13  1  0.40933532  0.05025031  0.31704204  1
  Pt  Pt14  1  0.90933532  0.94974969  0.18295796  1
  Pt  Pt15  1  0.59066468  0.55025031  0.68295796  1
