# generated using pymatgen
data_TmAlPt
_symmetry_space_group_name_H-M   'P 1'
_cell_length_a   4.35428906
_cell_length_b   6.79681986
_cell_length_c   7.67800777
_cell_angle_alpha   90.00000000
_cell_angle_beta   90.00000000
_cell_angle_gamma   90.00000000
_symmetry_Int_Tables_number   1
_chemical_formula_structural   TmAlPt
_chemical_formula_sum   'Tm4 Al4 Pt4'
_cell_volume   227.23308432
_cell_formula_units_Z   4
loop_
 _symmetry_equiv_pos_site_id
 _symmetry_equiv_pos_as_xyz
  1  'x, y, z'
loop_
 _atom_site_type_symbol
 _atom_site_label
 _atom_site_symmetry_multiplicity
 _atom_site_fract_x
 _atom_site_fract_y
 _atom_site_fract_z
 _atom_site_occupancy
  Tm  Tm0  1  0.75000000  0.47158220  0.81910056  1
  Tm  Tm1  1  0.75000000  0.97158220  0.68089944  1
  Tm  Tm2  1  0.25000000  0.52841780  0.18089944  1
  Tm  Tm3  1  0.25000000  0.02841780  0.31910056  1
  Al  Al4  1  0.75000000  0.35648541  0.43668224  1
  Al  Al5  1  0.75000000  0.85648541  0.06331776  1
  Al  Al6  1  0.25000000  0.64351459  0.56331776  1
  Al  Al7  1  0.25000000  0.14351459  0.93668224  1
  Pt  Pt8  1  0.75000000  0.23033215  0.11788442  1
  Pt  Pt9  1  0.75000000  0.73033215  0.38211558  1
  Pt  Pt10  1  0.25000000  0.76966785  0.88211558  1
  Pt  Pt11  1  0.25000000  0.26966785  0.61788442  1
