# generated using pymatgen
data_SrCdGe
_symmetry_space_group_name_H-M   'P 1'
_cell_length_a   4.63471288
_cell_length_b   7.84081607
_cell_length_c   8.48489011
_cell_angle_alpha   90.00000000
_cell_angle_beta   90.00000000
_cell_angle_gamma   90.00000000
_symmetry_Int_Tables_number   1
_chemical_formula_structural   SrCdGe
_chemical_formula_sum   'Sr4 Cd4 Ge4'
_cell_volume   308.34032309
_cell_formula_units_Z   4
loop_
 _symmetry_equiv_pos_site_id
 _symmetry_equiv_pos_as_xyz
  1  'x, y, z'
loop_
 _atom_site_type_symbol
 _atom_site_label
 _atom_site_symmetry_multiplicity
 _atom_site_fract_x
 _atom_site_fract_y
 _atom_site_fract_z
 _atom_site_occupancy
  Sr  Sr0  1  0.25000000  0.51221290  0.31035592  1
  Sr  Sr1  1  0.25000000  0.01221290  0.18964408  1
  Sr  Sr2  1  0.75000000  0.48778710  0.68964408  1
  Sr  Sr3  1  0.75000000  0.98778710  0.81035592  1
  Cd  Cd4  1  0.25000000  0.65517801  0.93120523  1
  Cd  Cd5  1  0.25000000  0.15517801  0.56879477  1
  Cd  Cd6  1  0.75000000  0.34482199  0.06879477  1
  Cd  Cd7  1  0.75000000  0.84482199  0.43120523  1
  Ge  Ge8  1  0.25000000  0.27867255  0.89265687  1
  Ge  Ge9  1  0.25000000  0.77867255  0.60734313  1
  Ge  Ge10  1  0.75000000  0.72132745  0.10734313  1
  Ge  Ge11  1  0.75000000  0.22132745  0.39265687  1
