# generated using pymatgen
data_Tb2SnAu2
_symmetry_space_group_name_H-M   'P 1'
_cell_length_a   7.91659809
_cell_length_b   7.91659809
_cell_length_c   3.75257681
_cell_angle_alpha   90.00000000
_cell_angle_beta   90.00000000
_cell_angle_gamma   89.99803750
_symmetry_Int_Tables_number   1
_chemical_formula_structural   Tb2SnAu2
_chemical_formula_sum   'Tb4 Sn2 Au4'
_cell_volume   235.18346507
_cell_formula_units_Z   2
loop_
 _symmetry_equiv_pos_site_id
 _symmetry_equiv_pos_as_xyz
  1  'x, y, z'
loop_
 _atom_site_type_symbol
 _atom_site_label
 _atom_site_symmetry_multiplicity
 _atom_site_fract_x
 _atom_site_fract_y
 _atom_site_fract_z
 _atom_site_occupancy
  Tb  Tb0  1  0.67008897  0.17008897  0.50000000  1
  Tb  Tb1  1  0.32991103  0.82991103  0.50000000  1
  Tb  Tb2  1  0.17008927  0.32991073  0.50000000  1
  Tb  Tb3  1  0.82991073  0.67008927  0.50000000  1
  Sn  Sn4  1  0.50000000  0.50000000  0.00000000  1
  Sn  Sn5  1  0.00000000  0.00000000  0.00000000  1
  Au  Au6  1  0.12699955  0.62699955  -0.00000000  1
  Au  Au7  1  0.87300045  0.37300045  -0.00000000  1
  Au  Au8  1  0.62698024  0.87301976  0.00000000  1
  Au  Au9  1  0.37301976  0.12698024  0.00000000  1
