# generated using pymatgen
data_Cu2GeS3
_symmetry_space_group_name_H-M   'P 1'
_cell_length_a   3.74543462
_cell_length_b   5.26977001
_cell_length_c   6.42589132
_cell_angle_alpha   114.20747500
_cell_angle_beta   106.94377670
_cell_angle_gamma   90.00000000
_symmetry_Int_Tables_number   1
_chemical_formula_structural   Cu2GeS3
_chemical_formula_sum   'Cu2 Ge1 S3'
_cell_volume   109.61446359
_cell_formula_units_Z   1
loop_
 _symmetry_equiv_pos_site_id
 _symmetry_equiv_pos_as_xyz
  1  'x, y, z'
loop_
 _atom_site_type_symbol
 _atom_site_label
 _atom_site_symmetry_multiplicity
 _atom_site_fract_x
 _atom_site_fract_y
 _atom_site_fract_z
 _atom_site_occupancy
  Cu  Cu0  1  0.16669518  0.42682841  0.33339136  1
  Cu  Cu1  1  0.83330482  0.09343705  0.66660864  1
  Ge  Ge2  1  0.50000000  0.72944476  -0.00000000  1
  S  S3  1  0.33218411  0.33632323  0.66436822  1
  S  S4  1  0.66781589  0.67195601  0.33563178  1
  S  S5  1  -0.00000000  0.00100953  -0.00000000  1
