# generated using pymatgen
data_Tb2Al6Si4Au
_symmetry_space_group_name_H-M   'P 1'
_cell_length_a   17.01191608
_cell_length_b   17.01191608
_cell_length_c   17.01191662
_cell_angle_alpha   14.12458620
_cell_angle_beta   14.12458620
_cell_angle_gamma   14.12458688
_symmetry_Int_Tables_number   1
_chemical_formula_structural   Tb2Al6Si4Au
_chemical_formula_sum   'Tb2 Al6 Si4 Au1'
_cell_volume   255.19648571
_cell_formula_units_Z   1
loop_
 _symmetry_equiv_pos_site_id
 _symmetry_equiv_pos_as_xyz
  1  'x, y, z'
loop_
 _atom_site_type_symbol
 _atom_site_label
 _atom_site_symmetry_multiplicity
 _atom_site_fract_x
 _atom_site_fract_y
 _atom_site_fract_z
 _atom_site_occupancy
  Tb  Tb0  1  0.56588425  0.56588425  0.56588425  1
  Tb  Tb1  1  0.43411575  0.43411575  0.43411575  1
  Al  Al2  1  0.94880757  0.94880757  0.94880757  1
  Al  Al3  1  0.05119243  0.05119243  0.05119243  1
  Al  Al4  1  0.18521427  0.18521427  0.18521427  1
  Al  Al5  1  0.81478573  0.81478573  0.81478573  1
  Al  Al6  1  0.31742167  0.31742167  0.31742167  1
  Al  Al7  1  0.68257833  0.68257833  0.68257833  1
  Si  Si8  1  0.73357846  0.73357846  0.73357846  1
  Si  Si9  1  0.13534997  0.13534997  0.13534997  1
  Si  Si10  1  0.26642154  0.26642154  0.26642154  1
  Si  Si11  1  0.86465003  0.86465003  0.86465003  1
  Au  Au12  1  0.00000000  0.00000000  -0.00000000  1
