# generated using pymatgen
data_LaP5
_symmetry_space_group_name_H-M   'P 1'
_cell_length_a   9.68928753
_cell_length_b   5.56078861
_cell_length_c   10.05970811
_cell_angle_alpha   76.05124794
_cell_angle_beta   90.00000000
_cell_angle_gamma   90.00000000
_symmetry_Int_Tables_number   1
_chemical_formula_structural   LaP5
_chemical_formula_sum   'La4 P20'
_cell_volume   526.03470182
_cell_formula_units_Z   4
loop_
 _symmetry_equiv_pos_site_id
 _symmetry_equiv_pos_as_xyz
  1  'x, y, z'
loop_
 _atom_site_type_symbol
 _atom_site_label
 _atom_site_symmetry_multiplicity
 _atom_site_fract_x
 _atom_site_fract_y
 _atom_site_fract_z
 _atom_site_occupancy
  La  La0  1  0.75000000  0.64608961  0.50521116  1
  La  La1  1  0.75000000  0.62348017  0.02294117  1
  La  La2  1  0.25000000  0.37651983  0.97705883  1
  La  La3  1  0.25000000  0.35391039  0.49478884  1
  P  P4  1  0.59249833  0.03197216  0.80858274  1
  P  P5  1  0.09249833  0.96802784  0.19141726  1
  P  P6  1  0.90750167  0.03197216  0.80858274  1
  P  P7  1  0.03339468  0.58797815  0.65667394  1
  P  P8  1  0.46660532  0.58797815  0.65667394  1
  P  P9  1  0.53339468  0.41202185  0.34332606  1
  P  P10  1  0.41487148  0.94536301  0.69128191  1
  P  P11  1  0.46045297  0.62448595  0.14148933  1
  P  P12  1  0.96045297  0.37551405  0.85851067  1
  P  P13  1  0.40750167  0.96802784  0.19141726  1
  P  P14  1  0.91487148  0.05463699  0.30871809  1
  P  P15  1  0.53954703  0.37551405  0.85851067  1
  P  P16  1  0.75000000  0.06635702  0.15597681  1
  P  P17  1  0.75000000  0.08766233  0.64575831  1
  P  P18  1  0.96660532  0.41202185  0.34332606  1
  P  P19  1  0.25000000  0.93364298  0.84402319  1
  P  P20  1  0.03954703  0.62448595  0.14148933  1
  P  P21  1  0.08512852  0.94536301  0.69128191  1
  P  P22  1  0.58512852  0.05463699  0.30871809  1
  P  P23  1  0.25000000  0.91233767  0.35424169  1
