# generated using pymatgen
data_TbOs2
_symmetry_space_group_name_H-M   'P 1'
_cell_length_a   5.27654459
_cell_length_b   5.27654459
_cell_length_c   8.95292946
_cell_angle_alpha   90.00000000
_cell_angle_beta   90.00000000
_cell_angle_gamma   119.99988374
_symmetry_Int_Tables_number   1
_chemical_formula_structural   TbOs2
_chemical_formula_sum   'Tb4 Os8'
_cell_volume   215.87160865
_cell_formula_units_Z   4
loop_
 _symmetry_equiv_pos_site_id
 _symmetry_equiv_pos_as_xyz
  1  'x, y, z'
loop_
 _atom_site_type_symbol
 _atom_site_label
 _atom_site_symmetry_multiplicity
 _atom_site_fract_x
 _atom_site_fract_y
 _atom_site_fract_z
 _atom_site_occupancy
  Tb  Tb0  1  0.66667034  0.33332966  0.56536709  1
  Tb  Tb1  1  0.33332966  0.66667034  0.43463291  1
  Tb  Tb2  1  0.33332966  0.66667034  0.06536709  1
  Tb  Tb3  1  0.66667034  0.33332966  0.93463291  1
  Os  Os4  1  -0.00000000  -0.00000000  0.50000000  1
  Os  Os5  1  -0.00000000  -0.00000000  -0.00000000  1
  Os  Os6  1  0.17097323  0.34194728  0.75000000  1
  Os  Os7  1  0.17093621  0.82906379  0.75000000  1
  Os  Os8  1  0.65805272  0.82902677  0.75000000  1
  Os  Os9  1  0.82902677  0.65805272  0.25000000  1
  Os  Os10  1  0.82906379  0.17093621  0.25000000  1
  Os  Os11  1  0.34194728  0.17097323  0.25000000  1
