# generated using pymatgen
data_SrFeBP2(HO5)2
_symmetry_space_group_name_H-M   'P 1'
_cell_length_a   6.68054800
_cell_length_b   6.73991648
_cell_length_c   9.39288755
_cell_angle_alpha   109.84407294
_cell_angle_beta   101.88956639
_cell_angle_gamma   103.59674466
_symmetry_Int_Tables_number   1
_chemical_formula_structural   SrFeBP2(HO5)2
_chemical_formula_sum   'Sr2 Fe2 B2 P4 H4 O20'
_cell_volume   367.28267733
_cell_formula_units_Z   2
loop_
 _symmetry_equiv_pos_site_id
 _symmetry_equiv_pos_as_xyz
  1  'x, y, z'
loop_
 _atom_site_type_symbol
 _atom_site_label
 _atom_site_symmetry_multiplicity
 _atom_site_fract_x
 _atom_site_fract_y
 _atom_site_fract_z
 _atom_site_occupancy
  Sr  Sr0  1  0.38911000  0.62287800  0.26563100  1
  Sr  Sr1  1  0.61089000  0.37712200  0.73436900  1
  Fe  Fe2  1  0.00000000  0.50000000  0.00000000  1
  Fe  Fe3  1  0.00000000  0.00000000  0.50000000  1
  B  B4  1  0.21763600  0.97209200  0.75340900  1
  B  B5  1  0.78236400  0.02790800  0.24659100  1
  P  P6  1  0.47571900  0.20779100  0.16714900  1
  P  P7  1  0.52428100  0.79220900  0.83285100  1
  P  P8  1  0.11560800  0.35909000  0.67621600  1
  P  P9  1  0.88439200  0.64091000  0.32378400  1
  H  H10  1  0.87757500  0.83135300  0.91699000  1
  H  H11  1  0.12242500  0.16864700  0.08301000  1
  H  H12  1  0.25501700  0.80407000  0.58866900  1
  H  H13  1  0.74498300  0.19593000  0.41133100  1
  O  O14  1  0.27333100  0.21431000  0.30770200  1
  O  O15  1  0.72666900  0.78569000  0.69229800  1
  O  O16  1  0.66756200  0.42616500  0.11419200  1
  O  O17  1  0.33243800  0.57383500  0.88580800  1
  O  O18  1  0.40366600  0.16811100  0.03674800  1
  O  O19  1  0.59633400  0.83188900  0.96325200  1
  O  O20  1  0.56392400  0.02558700  0.23521600  1
  O  O21  1  0.43607600  0.97441300  0.76478400  1
  O  O22  1  0.30483100  0.56709500  0.56411600  1
  O  O23  1  0.69516900  0.43290500  0.43588400  1
  O  O24  1  0.98122300  0.24829100  0.59078100  1
  O  O25  1  0.01877700  0.75170900  0.40921900  1
  O  O26  1  0.94623300  0.40075300  0.81662100  1
  O  O27  1  0.05376700  0.59924700  0.18337900  1
  O  O28  1  0.21881900  0.19431800  0.74758100  1
  O  O29  1  0.78118100  0.80568200  0.25241900  1
  O  O30  1  0.02806700  0.81131200  0.89582800  1
  O  O31  1  0.97193300  0.18868800  0.10417200  1
  O  O32  1  0.21476600  0.93470400  0.60450200  1
  O  O33  1  0.78523400  0.06529600  0.39549800  1
