# generated using pymatgen
data_GdCu4Pd
_symmetry_space_group_name_H-M   'P 1'
_cell_length_a   4.97513245
_cell_length_b   4.97513959
_cell_length_c   4.97514262
_cell_angle_alpha   60.00450219
_cell_angle_beta   60.00431817
_cell_angle_gamma   60.00435560
_symmetry_Int_Tables_number   1
_chemical_formula_structural   GdCu4Pd
_chemical_formula_sum   'Gd1 Cu4 Pd1'
_cell_volume   87.08506849
_cell_formula_units_Z   1
loop_
 _symmetry_equiv_pos_site_id
 _symmetry_equiv_pos_as_xyz
  1  'x, y, z'
loop_
 _atom_site_type_symbol
 _atom_site_label
 _atom_site_symmetry_multiplicity
 _atom_site_fract_x
 _atom_site_fract_y
 _atom_site_fract_z
 _atom_site_occupancy
  Gd  Gd0  1  0.24999817  0.24999956  0.24999984  1
  Cu  Cu1  1  0.62629250  0.62629225  0.62629289  1
  Cu  Cu2  1  0.62629996  0.62630011  0.12110717  1
  Cu  Cu3  1  0.62629827  0.12110767  0.62630172  1
  Cu  Cu4  1  0.12110857  0.62629997  0.62629871  1
  Pd  Pd5  1  0.00000153  0.00000044  0.99999966  1
