# generated using pymatgen
data_NpGa5Ni
_symmetry_space_group_name_H-M   'P 1'
_cell_length_a   4.24977497
_cell_length_b   4.21190357
_cell_length_c   6.76663360
_cell_angle_alpha   90.00000000
_cell_angle_beta   90.00000000
_cell_angle_gamma   90.00000000
_symmetry_Int_Tables_number   1
_chemical_formula_structural   NpGa5Ni
_chemical_formula_sum   'Np1 Ga5 Ni1'
_cell_volume   121.12032147
_cell_formula_units_Z   1
loop_
 _symmetry_equiv_pos_site_id
 _symmetry_equiv_pos_as_xyz
  1  'x, y, z'
loop_
 _atom_site_type_symbol
 _atom_site_label
 _atom_site_symmetry_multiplicity
 _atom_site_fract_x
 _atom_site_fract_y
 _atom_site_fract_z
 _atom_site_occupancy
  Np  Np0  1  -0.00000000  0.00000000  -0.00000000  1
  Ga  Ga1  1  -0.00000000  0.50000000  0.30810410  1
  Ga  Ga2  1  -0.00000000  0.50000000  0.69189590  1
  Ga  Ga3  1  0.50000000  -0.00000000  0.30783222  1
  Ga  Ga4  1  0.50000000  0.00000000  0.69216778  1
  Ga  Ga5  1  0.50000000  0.50000000  -0.00000000  1
  Ni  Ni6  1  0.00000000  0.00000000  0.50000000  1
