# generated using pymatgen
data_Eu(InSe2)2
_symmetry_space_group_name_H-M   'P 1'
_cell_length_a   6.41821805
_cell_length_b   6.41823934
_cell_length_c   11.00617482
_cell_angle_alpha   90.00000000
_cell_angle_beta   90.00000000
_cell_angle_gamma   115.91297739
_symmetry_Int_Tables_number   1
_chemical_formula_structural   Eu(InSe2)2
_chemical_formula_sum   'Eu2 In4 Se8'
_cell_volume   407.80079471
_cell_formula_units_Z   2
loop_
 _symmetry_equiv_pos_site_id
 _symmetry_equiv_pos_as_xyz
  1  'x, y, z'
loop_
 _atom_site_type_symbol
 _atom_site_label
 _atom_site_symmetry_multiplicity
 _atom_site_fract_x
 _atom_site_fract_y
 _atom_site_fract_z
 _atom_site_occupancy
  Eu  Eu0  1  0.50000000  0.50000000  0.75000000  1
  Eu  Eu1  1  0.50000000  0.50000000  0.25000000  1
  In  In2  1  0.77735689  0.22909889  0.50000000  1
  In  In3  1  0.22264311  0.77090111  0.50000000  1
  In  In4  1  0.77090211  0.22264311  0.00000000  1
  In  In5  1  0.22909789  0.77735689  0.00000000  1
  Se  Se6  1  0.35327523  0.21140762  0.50000000  1
  Se  Se7  1  0.64672477  0.78859238  0.50000000  1
  Se  Se8  1  0.78859138  0.64672377  0.00000000  1
  Se  Se9  1  0.21140862  0.35327623  0.00000000  1
  Se  Se10  1  0.50000000  -0.00000000  0.81923752  1
  Se  Se11  1  0.00000000  0.50000000  0.68076148  1
  Se  Se12  1  0.50000000  -0.00000000  0.18076248  1
  Se  Se13  1  0.00000000  0.50000000  0.31923852  1
