# generated using pymatgen
data_O2
_symmetry_space_group_name_H-M   'P 1'
_cell_length_a   4.13469952
_cell_length_b   3.00624099
_cell_length_c   4.11694660
_cell_angle_alpha   70.56064203
_cell_angle_beta   90.00000000
_cell_angle_gamma   90.00000000
_symmetry_Int_Tables_number   1
_chemical_formula_structural   O2
_chemical_formula_sum   O4
_cell_volume   48.25607910
_cell_formula_units_Z   2
loop_
 _symmetry_equiv_pos_site_id
 _symmetry_equiv_pos_as_xyz
  1  'x, y, z'
loop_
 _atom_site_type_symbol
 _atom_site_label
 _atom_site_symmetry_multiplicity
 _atom_site_fract_x
 _atom_site_fract_y
 _atom_site_fract_z
 _atom_site_occupancy
  O  O0  1  0.32114466  0.32152842  0.34270567  1
  O  O1  1  0.32114466  0.17847158  0.65729433  1
  O  O2  1  0.67885534  0.67847158  0.65729433  1
  O  O3  1  0.67885534  0.82152842  0.34270567  1
