# generated using pymatgen
data_LaCrSb3
_symmetry_space_group_name_H-M   'P 1'
_cell_length_a   6.32443647
_cell_length_b   6.21886720
_cell_length_c   13.38310124
_cell_angle_alpha   90.00050104
_cell_angle_beta   89.99959866
_cell_angle_gamma   90.00051474
_symmetry_Int_Tables_number   1
_chemical_formula_structural   LaCrSb3
_chemical_formula_sum   'La4 Cr4 Sb12'
_cell_volume   526.36848670
_cell_formula_units_Z   4
loop_
 _symmetry_equiv_pos_site_id
 _symmetry_equiv_pos_as_xyz
  1  'x, y, z'
loop_
 _atom_site_type_symbol
 _atom_site_label
 _atom_site_symmetry_multiplicity
 _atom_site_fract_x
 _atom_site_fract_y
 _atom_site_fract_z
 _atom_site_occupancy
  La  La0  1  0.74999364  0.99593527  0.31051127  1
  La  La1  1  0.25000154  0.00414036  0.68947597  1
  La  La2  1  0.24999805  0.50406878  0.31051092  1
  La  La3  1  0.75000272  0.49598543  0.68944426  1
  Cr  Cr4  1  0.50000196  0.74999619  0.90955896  1
  Cr  Cr5  1  0.00000274  0.24999007  0.09045792  1
  Cr  Cr6  1  0.49999537  0.24999810  0.09045790  1
  Cr  Cr7  1  0.00000785  0.74999573  0.90955923  1
  Sb  Sb8  1  0.75000484  0.89377507  0.06325974  1
  Sb  Sb9  1  0.24998904  0.10620283  0.93677077  1
  Sb  Sb10  1  0.25000882  0.60619488  0.06326170  1
  Sb  Sb11  1  0.75000535  0.39377292  0.93677277  1
  Sb  Sb12  1  0.74999438  0.50024295  0.21690485  1
  Sb  Sb13  1  0.25003800  0.49978633  0.78311788  1
  Sb  Sb14  1  0.24999458  -0.00024334  0.21691410  1
  Sb  Sb15  1  0.75003340  0.00023486  0.78312131  1
  Sb  Sb16  1  0.49998479  0.74999826  0.50144520  1
  Sb  Sb17  1  0.99996265  0.24996955  0.49849983  1
  Sb  Sb18  1  0.50000456  0.24996349  0.49849853  1
  Sb  Sb19  1  0.99997773  0.74999226  0.50145488  1
