# generated using pymatgen
data_ScGePd
_symmetry_space_group_name_H-M   'P 1'
_cell_length_a   6.72887763
_cell_length_b   6.72887763
_cell_length_c   3.93786050
_cell_angle_alpha   90.00000000
_cell_angle_beta   90.00000000
_cell_angle_gamma   119.99999835
_symmetry_Int_Tables_number   1
_chemical_formula_structural   ScGePd
_chemical_formula_sum   'Sc3 Ge3 Pd3'
_cell_volume   154.41028587
_cell_formula_units_Z   3
loop_
 _symmetry_equiv_pos_site_id
 _symmetry_equiv_pos_as_xyz
  1  'x, y, z'
loop_
 _atom_site_type_symbol
 _atom_site_label
 _atom_site_symmetry_multiplicity
 _atom_site_fract_x
 _atom_site_fract_y
 _atom_site_fract_z
 _atom_site_occupancy
  Sc  Sc0  1  -0.00000000  0.57661535  -0.00000000  1
  Sc  Sc1  1  0.42338465  0.42338465  0.00000000  1
  Sc  Sc2  1  0.57661535  -0.00000000  0.00000000  1
  Ge  Ge3  1  0.33333300  0.66666700  0.50000000  1
  Ge  Ge4  1  0.66666700  0.33333300  0.50000000  1
  Ge  Ge5  1  0.00000000  -0.00000000  -0.00000000  1
  Pd  Pd6  1  -0.00000000  0.24876972  0.50000000  1
  Pd  Pd7  1  0.75123028  0.75123028  0.50000000  1
  Pd  Pd8  1  0.24876972  -0.00000000  0.50000000  1
