# generated using pymatgen
data_NdCo9Si4
_symmetry_space_group_name_H-M   'P 1'
_cell_length_a   7.93938536
_cell_length_b   7.93938670
_cell_length_c   7.94109919
_cell_angle_alpha   122.07590018
_cell_angle_beta   122.07574630
_cell_angle_gamma   86.45348987
_symmetry_Int_Tables_number   1
_chemical_formula_structural   NdCo9Si4
_chemical_formula_sum   'Nd2 Co18 Si8'
_cell_volume   342.08782160
_cell_formula_units_Z   2
loop_
 _symmetry_equiv_pos_site_id
 _symmetry_equiv_pos_as_xyz
  1  'x, y, z'
loop_
 _atom_site_type_symbol
 _atom_site_label
 _atom_site_symmetry_multiplicity
 _atom_site_fract_x
 _atom_site_fract_y
 _atom_site_fract_z
 _atom_site_occupancy
  Nd  Nd0  1  0.75001406  0.74997144  -0.00000082  1
  Nd  Nd1  1  0.24998993  0.25002478  0.00000070  1
  Co  Co2  1  0.69192492  0.44804201  0.49997925  1
  Co  Co3  1  0.44800442  0.94800915  0.75599126  1
  Co  Co4  1  0.19184234  0.69184087  0.24376437  1
  Co  Co5  1  0.55199505  0.05199366  0.24401096  1
  Co  Co6  1  0.94804026  0.19192482  0.49998289  1
  Co  Co7  1  0.19664009  0.93224051  0.12888643  1
  Co  Co8  1  0.80335687  0.06775136  0.87110634  1
  Co  Co9  1  0.43225444  0.69663366  0.12889193  1
  Co  Co10  1  0.56775177  0.30336591  0.87111598  1
  Co  Co11  1  0.69661155  0.56778935  0.26442305  1
  Co  Co12  1  0.30339203  0.43221448  0.73558059  1
  Co  Co13  1  0.93220798  0.80338570  0.73556672  1
  Co  Co14  1  0.30807930  0.55196256  0.50002145  1
  Co  Co15  1  0.80815365  0.30815900  0.75623713  1
  Co  Co16  1  -0.00000721  0.50000469  0.49999856  1
  Co  Co17  1  0.50000114  0.00000235  0.50000168  1
  Co  Co18  1  0.06778844  0.19661111  0.26442400  1
  Co  Co19  1  0.05195748  0.80807377  0.50001640  1
  Si  Si20  1  0.29167992  0.79168196  0.83509339  1
  Si  Si21  1  0.04343853  0.54344060  0.83506093  1
  Si  Si22  1  0.54339425  0.70833182  0.49996689  1
  Si  Si23  1  0.79167019  0.95659333  0.50003072  1
  Si  Si24  1  0.45660558  0.29167044  0.50003344  1
  Si  Si25  1  0.95656681  0.45657345  0.16495364  1
  Si  Si26  1  0.70831258  0.20832040  0.16489083  1
  Si  Si27  1  0.20833361  0.04338680  0.49997129  1
