# generated using pymatgen
data_KSmF4
_symmetry_space_group_name_H-M   'P 1'
_cell_length_a   3.67548860
_cell_length_b   6.15229400
_cell_length_c   15.43219620
_cell_angle_alpha   90.00000000
_cell_angle_beta   90.00000000
_cell_angle_gamma   90.00000000
_symmetry_Int_Tables_number   1
_chemical_formula_structural   KSmF4
_chemical_formula_sum   'K4 Sm4 F16'
_cell_volume   348.96341407
_cell_formula_units_Z   4
loop_
 _symmetry_equiv_pos_site_id
 _symmetry_equiv_pos_as_xyz
  1  'x, y, z'
loop_
 _atom_site_type_symbol
 _atom_site_label
 _atom_site_symmetry_multiplicity
 _atom_site_fract_x
 _atom_site_fract_y
 _atom_site_fract_z
 _atom_site_occupancy
  K  K0  1  0.75000000  0.72258342  0.79727476  1
  K  K1  1  0.25000000  0.27741658  0.20272524  1
  K  K2  1  0.75000000  0.22258342  0.70272524  1
  K  K3  1  0.25000000  0.77741658  0.29727476  1
  Sm  Sm4  1  0.25000000  0.74864712  0.55998209  1
  Sm  Sm5  1  0.75000000  0.25135288  0.44001791  1
  Sm  Sm6  1  0.25000000  0.24864712  0.94001791  1
  Sm  Sm7  1  0.75000000  0.75135288  0.05998209  1
  F  F8  1  0.25000000  0.90940424  0.69215945  1
  F  F9  1  0.75000000  0.09059576  0.30784055  1
  F  F10  1  0.25000000  0.40940424  0.80784055  1
  F  F11  1  0.75000000  0.59059576  0.19215945  1
  F  F12  1  0.75000000  0.60384200  0.63319925  1
  F  F13  1  0.25000000  0.39615800  0.36680075  1
  F  F14  1  0.75000000  0.10384200  0.86680075  1
  F  F15  1  0.25000000  0.89615800  0.13319925  1
  F  F16  1  0.75000000  0.63614977  0.46329047  1
  F  F17  1  0.25000000  0.36385023  0.53670953  1
  F  F18  1  0.75000000  0.13614977  0.03670953  1
  F  F19  1  0.25000000  0.86385023  0.96329047  1
  F  F20  1  0.25000000  0.49537695  0.05814789  1
  F  F21  1  0.75000000  0.50462305  0.94185211  1
  F  F22  1  0.25000000  0.99537695  0.44185211  1
  F  F23  1  0.75000000  0.00462305  0.55814789  1
