# generated using pymatgen
data_Cu2SiHgS4
_symmetry_space_group_name_H-M   'P 1'
_cell_length_a   6.26069484
_cell_length_b   6.45203477
_cell_length_c   7.61640596
_cell_angle_alpha   90.00000000
_cell_angle_beta   90.00000000
_cell_angle_gamma   90.00000000
_symmetry_Int_Tables_number   1
_chemical_formula_structural   Cu2SiHgS4
_chemical_formula_sum   'Cu4 Si2 Hg2 S8'
_cell_volume   307.65878399
_cell_formula_units_Z   2
loop_
 _symmetry_equiv_pos_site_id
 _symmetry_equiv_pos_as_xyz
  1  'x, y, z'
loop_
 _atom_site_type_symbol
 _atom_site_label
 _atom_site_symmetry_multiplicity
 _atom_site_fract_x
 _atom_site_fract_y
 _atom_site_fract_z
 _atom_site_occupancy
  Cu  Cu0  1  0.50557003  0.32644230  0.74799403  1
  Cu  Cu1  1  0.50557003  0.32644230  0.25200597  1
  Cu  Cu2  1  0.00557003  0.67355770  0.75200597  1
  Cu  Cu3  1  0.00557003  0.67355770  0.24799403  1
  Si  Si4  1  0.50202280  0.81776749  0.50000000  1
  Si  Si5  1  0.00202280  0.18223251  0.00000000  1
  Hg  Hg6  1  0.01210860  0.15323236  0.50000000  1
  Hg  Hg7  1  0.51210860  0.84676764  0.00000000  1
  S  S8  1  0.84294702  0.78784445  0.50000000  1
  S  S9  1  0.34294702  0.21215555  0.00000000  1
  S  S10  1  0.41884253  0.14114794  0.50000000  1
  S  S11  1  0.91884253  0.85885206  0.00000000  1
  S  S12  1  0.87046899  0.34120087  0.77766949  1
  S  S13  1  0.87046899  0.34120087  0.22233051  1
  S  S14  1  0.37046899  0.65879913  0.72233051  1
  S  S15  1  0.37046899  0.65879913  0.27766949  1
