# generated using pymatgen
data_TmMgGa
_symmetry_space_group_name_H-M   'P 1'
_cell_length_a   7.15521951
_cell_length_b   7.15521979
_cell_length_c   4.37323114
_cell_angle_alpha   90.00000000
_cell_angle_beta   90.00000000
_cell_angle_gamma   120.00000686
_symmetry_Int_Tables_number   1
_chemical_formula_structural   TmMgGa
_chemical_formula_sum   'Tm3 Mg3 Ga3'
_cell_volume   193.90051996
_cell_formula_units_Z   3
loop_
 _symmetry_equiv_pos_site_id
 _symmetry_equiv_pos_as_xyz
  1  'x, y, z'
loop_
 _atom_site_type_symbol
 _atom_site_label
 _atom_site_symmetry_multiplicity
 _atom_site_fract_x
 _atom_site_fract_y
 _atom_site_fract_z
 _atom_site_occupancy
  Tm  Tm0  1  0.00000000  0.57258775  0.00000000  1
  Tm  Tm1  1  0.42741225  0.42741225  -0.00000000  1
  Tm  Tm2  1  0.57258775  0.00000000  0.00000000  1
  Mg  Mg3  1  -0.00000000  0.24369779  0.50000000  1
  Mg  Mg4  1  0.75630221  0.75630221  0.50000000  1
  Mg  Mg5  1  0.24369779  -0.00000000  0.50000000  1
  Ga  Ga6  1  0.66666700  0.33333300  0.50000000  1
  Ga  Ga7  1  0.33333300  0.66666700  0.50000000  1
  Ga  Ga8  1  -0.00000000  0.00000000  -0.00000000  1
