# generated using pymatgen
data_ZrTaC2
_symmetry_space_group_name_H-M   'P 1'
_cell_length_a   5.62510206
_cell_length_b   5.62510206
_cell_length_c   5.62510246
_cell_angle_alpha   33.39667840
_cell_angle_beta   33.39667840
_cell_angle_gamma   33.39666887
_symmetry_Int_Tables_number   1
_chemical_formula_structural   ZrTaC2
_chemical_formula_sum   'Zr1 Ta1 C2'
_cell_volume   48.02059335
_cell_formula_units_Z   1
loop_
 _symmetry_equiv_pos_site_id
 _symmetry_equiv_pos_as_xyz
  1  'x, y, z'
loop_
 _atom_site_type_symbol
 _atom_site_label
 _atom_site_symmetry_multiplicity
 _atom_site_fract_x
 _atom_site_fract_y
 _atom_site_fract_z
 _atom_site_occupancy
  Zr  Zr0  1  0.00000000  0.00000000  0.00000000  1
  Ta  Ta1  1  0.50000000  0.50000000  0.50000000  1
  C  C2  1  0.24527677  0.24527677  0.24527677  1
  C  C3  1  0.75472323  0.75472323  0.75472323  1
