# generated using pymatgen
data_ThSbSe
_symmetry_space_group_name_H-M   'P 1'
_cell_length_a   4.30227869
_cell_length_b   4.30227869
_cell_length_c   8.75749016
_cell_angle_alpha   90.00000000
_cell_angle_beta   90.00000000
_cell_angle_gamma   90.00000000
_symmetry_Int_Tables_number   1
_chemical_formula_structural   ThSbSe
_chemical_formula_sum   'Th2 Sb2 Se2'
_cell_volume   162.09765674
_cell_formula_units_Z   2
loop_
 _symmetry_equiv_pos_site_id
 _symmetry_equiv_pos_as_xyz
  1  'x, y, z'
loop_
 _atom_site_type_symbol
 _atom_site_label
 _atom_site_symmetry_multiplicity
 _atom_site_fract_x
 _atom_site_fract_y
 _atom_site_fract_z
 _atom_site_occupancy
  Th  Th0  1  0.75000000  0.75000000  0.71691701  1
  Th  Th1  1  0.25000000  0.25000000  0.28308299  1
  Sb  Sb2  1  0.75000000  0.25000000  -0.00000000  1
  Sb  Sb3  1  0.25000000  0.75000000  -0.00000000  1
  Se  Se4  1  0.75000000  0.75000000  0.36916175  1
  Se  Se5  1  0.25000000  0.25000000  0.63083825  1
