# generated using pymatgen
data_ThUC2
_symmetry_space_group_name_H-M   'P 1'
_cell_length_a   6.26599132
_cell_length_b   6.26599132
_cell_length_c   6.26599080
_cell_angle_alpha   33.62676847
_cell_angle_beta   33.62676847
_cell_angle_gamma   33.62677176
_symmetry_Int_Tables_number   1
_chemical_formula_structural   ThUC2
_chemical_formula_sum   'Th1 U1 C2'
_cell_volume   67.21055172
_cell_formula_units_Z   1
loop_
 _symmetry_equiv_pos_site_id
 _symmetry_equiv_pos_as_xyz
  1  'x, y, z'
loop_
 _atom_site_type_symbol
 _atom_site_label
 _atom_site_symmetry_multiplicity
 _atom_site_fract_x
 _atom_site_fract_y
 _atom_site_fract_z
 _atom_site_occupancy
  Th  Th0  1  0.50000000  0.50000000  0.50000000  1
  U  U1  1  0.00000000  0.00000000  -0.00000000  1
  C  C2  1  0.26627655  0.26627655  0.26627655  1
  C  C3  1  0.73372345  0.73372345  0.73372345  1
