# generated using pymatgen
data_CeGaPt
_symmetry_space_group_name_H-M   'P 1'
_cell_length_a   4.49653810
_cell_length_b   7.14244803
_cell_length_c   7.75063271
_cell_angle_alpha   89.99501176
_cell_angle_beta   90.00000000
_cell_angle_gamma   90.00000000
_symmetry_Int_Tables_number   1
_chemical_formula_structural   CeGaPt
_chemical_formula_sum   'Ce4 Ga4 Pt4'
_cell_volume   248.92156429
_cell_formula_units_Z   4
loop_
 _symmetry_equiv_pos_site_id
 _symmetry_equiv_pos_as_xyz
  1  'x, y, z'
loop_
 _atom_site_type_symbol
 _atom_site_label
 _atom_site_symmetry_multiplicity
 _atom_site_fract_x
 _atom_site_fract_y
 _atom_site_fract_z
 _atom_site_occupancy
  Ce  Ce0  1  0.25000000  0.98061932  0.29966308  1
  Ce  Ce1  1  0.25000000  0.48055910  0.20034509  1
  Ce  Ce2  1  0.75000000  0.01937768  0.70033292  1
  Ce  Ce3  1  0.75000000  0.51944090  0.79965291  1
  Ga  Ga4  1  0.25000000  0.33021803  0.57742922  1
  Ga  Ga5  1  0.25000000  0.83001041  0.92263285  1
  Ga  Ga6  1  0.75000000  0.66978697  0.42257078  1
  Ga  Ga7  1  0.75000000  0.16998759  0.07737015  1
  Pt  Pt8  1  0.25000000  0.21889551  0.90468658  1
  Pt  Pt9  1  0.25000000  0.71888791  0.59534505  1
  Pt  Pt10  1  0.75000000  0.78110549  0.09532142  1
  Pt  Pt11  1  0.75000000  0.28111109  0.40465095  1
