# generated using pymatgen
data_NdGaPt
_symmetry_space_group_name_H-M   'P 1'
_cell_length_a   4.49829065
_cell_length_b   7.18008593
_cell_length_c   7.70610624
_cell_angle_alpha   89.99925081
_cell_angle_beta   90.00000000
_cell_angle_gamma   90.00000000
_symmetry_Int_Tables_number   1
_chemical_formula_structural   NdGaPt
_chemical_formula_sum   'Nd4 Ga4 Pt4'
_cell_volume   248.89269324
_cell_formula_units_Z   4
loop_
 _symmetry_equiv_pos_site_id
 _symmetry_equiv_pos_as_xyz
  1  'x, y, z'
loop_
 _atom_site_type_symbol
 _atom_site_label
 _atom_site_symmetry_multiplicity
 _atom_site_fract_x
 _atom_site_fract_y
 _atom_site_fract_z
 _atom_site_occupancy
  Nd  Nd0  1  0.25000000  0.01829414  0.69704351  1
  Nd  Nd1  1  0.25000000  0.51829099  0.80295721  1
  Nd  Nd2  1  0.75000000  0.98170486  0.30295549  1
  Nd  Nd3  1  0.75000000  0.48171001  0.19704679  1
  Ga  Ga4  1  0.25000000  0.16952037  0.07696036  1
  Ga  Ga5  1  0.25000000  0.66952268  0.42303744  1
  Ga  Ga6  1  0.75000000  0.83048063  0.92303964  1
  Ga  Ga7  1  0.75000000  0.33047732  0.57696056  1
  Pt  Pt8  1  0.25000000  0.28641804  0.40340946  1
  Pt  Pt9  1  0.25000000  0.78642767  0.09659009  1
  Pt  Pt10  1  0.75000000  0.71358196  0.59659054  1
  Pt  Pt11  1  0.75000000  0.21357333  0.90340991  1
