# generated using pymatgen
data_BaBeF4
_symmetry_space_group_name_H-M   'P 1'
_cell_length_a   5.26519531
_cell_length_b   7.06970711
_cell_length_c   8.89148016
_cell_angle_alpha   90.00000000
_cell_angle_beta   90.00000000
_cell_angle_gamma   90.00000000
_symmetry_Int_Tables_number   1
_chemical_formula_structural   BaBeF4
_chemical_formula_sum   'Ba4 Be4 F16'
_cell_volume   330.97102228
_cell_formula_units_Z   4
loop_
 _symmetry_equiv_pos_site_id
 _symmetry_equiv_pos_as_xyz
  1  'x, y, z'
loop_
 _atom_site_type_symbol
 _atom_site_label
 _atom_site_symmetry_multiplicity
 _atom_site_fract_x
 _atom_site_fract_y
 _atom_site_fract_z
 _atom_site_occupancy
  Ba  Ba0  1  0.25000000  0.15429427  0.18664905  1
  Ba  Ba1  1  0.75000000  0.84570573  0.81335095  1
  Ba  Ba2  1  0.75000000  0.65429427  0.31335095  1
  Ba  Ba3  1  0.25000000  0.34570573  0.68664905  1
  Be  Be4  1  0.25000000  0.80824128  0.55427906  1
  Be  Be5  1  0.25000000  0.69175872  0.05427906  1
  Be  Be6  1  0.75000000  0.30824128  0.94572094  1
  Be  Be7  1  0.75000000  0.19175872  0.44572094  1
  F  F8  1  0.48790586  0.81979182  0.07963079  1
  F  F9  1  0.01209414  0.68020818  0.57963079  1
  F  F10  1  0.51209414  0.31979182  0.42036921  1
  F  F11  1  0.98790586  0.18020818  0.92036921  1
  F  F12  1  0.25000000  0.87444208  0.38971510  1
  F  F13  1  0.75000000  0.12555792  0.61028490  1
  F  F14  1  0.75000000  0.37444208  0.11028490  1
  F  F15  1  0.25000000  0.62555792  0.88971510  1
  F  F16  1  0.25000000  0.96344033  0.67595086  1
  F  F17  1  0.75000000  0.03655967  0.32404914  1
  F  F18  1  0.75000000  0.46344033  0.82404914  1
  F  F19  1  0.25000000  0.53655967  0.17595086  1
  F  F20  1  0.98790586  0.31979182  0.42036921  1
  F  F21  1  0.48790586  0.68020818  0.57963079  1
  F  F22  1  0.01209414  0.81979182  0.07963079  1
  F  F23  1  0.51209414  0.18020818  0.92036921  1
