# generated using pymatgen
data_TmGaAg
_symmetry_space_group_name_H-M   'P 1'
_cell_length_a   5.64964279
_cell_length_b   5.64964279
_cell_length_c   7.00831960
_cell_angle_alpha   52.28786248
_cell_angle_beta   52.28786248
_cell_angle_gamma   46.48547141
_symmetry_Int_Tables_number   1
_chemical_formula_structural   TmGaAg
_chemical_formula_sum   'Tm2 Ga2 Ag2'
_cell_volume   121.05080823
_cell_formula_units_Z   2
loop_
 _symmetry_equiv_pos_site_id
 _symmetry_equiv_pos_as_xyz
  1  'x, y, z'
loop_
 _atom_site_type_symbol
 _atom_site_label
 _atom_site_symmetry_multiplicity
 _atom_site_fract_x
 _atom_site_fract_y
 _atom_site_fract_z
 _atom_site_occupancy
  Tm  Tm0  1  0.46606430  0.46606430  0.28997897  1
  Tm  Tm1  1  0.53393570  0.53393570  0.71002103  1
  Ga  Ga2  1  0.15826095  0.15826095  0.88076230  1
  Ga  Ga3  1  0.84173905  0.84173905  0.11923770  1
  Ag  Ag4  1  0.82692861  0.82692861  0.71964381  1
  Ag  Ag5  1  0.17307139  0.17307139  0.28035619  1
