# generated using pymatgen
data_EuGaPt
_symmetry_space_group_name_H-M   'P 1'
_cell_length_a   4.50016743
_cell_length_b   7.22445526
_cell_length_c   7.69851106
_cell_angle_alpha   90.00197053
_cell_angle_beta   90.00000000
_cell_angle_gamma   90.00000000
_symmetry_Int_Tables_number   1
_chemical_formula_structural   EuGaPt
_chemical_formula_sum   'Eu4 Ga4 Pt4'
_cell_volume   250.28828122
_cell_formula_units_Z   4
loop_
 _symmetry_equiv_pos_site_id
 _symmetry_equiv_pos_as_xyz
  1  'x, y, z'
loop_
 _atom_site_type_symbol
 _atom_site_label
 _atom_site_symmetry_multiplicity
 _atom_site_fract_x
 _atom_site_fract_y
 _atom_site_fract_z
 _atom_site_occupancy
  Eu  Eu0  1  0.25000000  0.98399786  0.31149867  1
  Eu  Eu1  1  0.25000000  0.48400458  0.18846394  1
  Eu  Eu2  1  0.75000000  0.01608529  0.68853144  1
  Eu  Eu3  1  0.75000000  0.51607377  0.81153100  1
  Ga  Ga4  1  0.25000000  0.33702921  0.57565060  1
  Ga  Ga5  1  0.25000000  0.83700349  0.92433272  1
  Ga  Ga6  1  0.75000000  0.66294407  0.42434775  1
  Ga  Ga7  1  0.75000000  0.16299106  0.07566660  1
  Pt  Pt8  1  0.25000000  0.20458028  0.89725112  1
  Pt  Pt9  1  0.25000000  0.70454774  0.60271512  1
  Pt  Pt10  1  0.75000000  0.79534939  0.10284127  1
  Pt  Pt11  1  0.75000000  0.29539426  0.39717076  1
