# generated using pymatgen
data_Ba3GeO
_symmetry_space_group_name_H-M   'P 1'
_cell_length_a   7.57259814
_cell_length_b   7.72347163
_cell_length_c   10.83356778
_cell_angle_alpha   90.00000000
_cell_angle_beta   90.00000000
_cell_angle_gamma   90.00000000
_symmetry_Int_Tables_number   1
_chemical_formula_structural   Ba3GeO
_chemical_formula_sum   'Ba12 Ge4 O4'
_cell_volume   633.62013677
_cell_formula_units_Z   4
loop_
 _symmetry_equiv_pos_site_id
 _symmetry_equiv_pos_as_xyz
  1  'x, y, z'
loop_
 _atom_site_type_symbol
 _atom_site_label
 _atom_site_symmetry_multiplicity
 _atom_site_fract_x
 _atom_site_fract_y
 _atom_site_fract_z
 _atom_site_occupancy
  Ba  Ba0  1  0.57839634  0.51936546  0.25000000  1
  Ba  Ba1  1  0.07839634  0.98063454  0.75000000  1
  Ba  Ba2  1  0.92160366  0.01936546  0.25000000  1
  Ba  Ba3  1  0.42160366  0.48063454  0.75000000  1
  Ba  Ba4  1  0.28987115  0.21069583  0.45904429  1
  Ba  Ba5  1  0.78987115  0.28930417  0.54095571  1
  Ba  Ba6  1  0.21012885  0.71069583  0.04095571  1
  Ba  Ba7  1  0.71012885  0.78930417  0.95904429  1
  Ba  Ba8  1  0.71012885  0.78930417  0.54095571  1
  Ba  Ba9  1  0.21012885  0.71069583  0.45904429  1
  Ba  Ba10  1  0.78987115  0.28930417  0.95904429  1
  Ba  Ba11  1  0.28987115  0.21069583  0.04095571  1
  Ge  Ge12  1  0.98693443  0.53955201  0.75000000  1
  Ge  Ge13  1  0.48693443  0.96044799  0.25000000  1
  Ge  Ge14  1  0.51306557  0.03955201  0.75000000  1
  Ge  Ge15  1  0.01306557  0.46044799  0.25000000  1
  O  O16  1  0.00000000  0.00000000  0.50000000  1
  O  O17  1  0.50000000  0.50000000  0.50000000  1
  O  O18  1  0.50000000  0.50000000  0.00000000  1
  O  O19  1  0.00000000  0.00000000  0.00000000  1
