# generated using pymatgen
data_Nd2Au
_symmetry_space_group_name_H-M   'P 1'
_cell_length_a   5.09689504
_cell_length_b   7.31253777
_cell_length_c   9.27315589
_cell_angle_alpha   90.00000000
_cell_angle_beta   90.00000000
_cell_angle_gamma   90.00000000
_symmetry_Int_Tables_number   1
_chemical_formula_structural   Nd2Au
_chemical_formula_sum   'Nd8 Au4'
_cell_volume   345.62199546
_cell_formula_units_Z   4
loop_
 _symmetry_equiv_pos_site_id
 _symmetry_equiv_pos_as_xyz
  1  'x, y, z'
loop_
 _atom_site_type_symbol
 _atom_site_label
 _atom_site_symmetry_multiplicity
 _atom_site_fract_x
 _atom_site_fract_y
 _atom_site_fract_z
 _atom_site_occupancy
  Nd  Nd0  1  0.75000000  0.64965804  0.58906838  1
  Nd  Nd1  1  0.75000000  0.14974945  0.91094192  1
  Nd  Nd2  1  0.25000000  0.35025055  0.41094192  1
  Nd  Nd3  1  0.25000000  0.85034196  0.08906838  1
  Nd  Nd4  1  0.75000000  0.00400642  0.32667797  1
  Nd  Nd5  1  0.75000000  0.50408846  0.17332108  1
  Nd  Nd6  1  0.25000000  0.99591154  0.67332108  1
  Nd  Nd7  1  0.25000000  0.49599358  0.82667797  1
  Au  Au8  1  0.75000000  0.24201477  0.59302258  1
  Au  Au9  1  0.75000000  0.74205240  0.90696707  1
  Au  Au10  1  0.25000000  0.75794760  0.40696707  1
  Au  Au11  1  0.25000000  0.25798523  0.09302258  1
