# generated using pymatgen
data_NdInCu4
_symmetry_space_group_name_H-M   'P 1'
_cell_length_a   5.15040679
_cell_length_b   5.15040968
_cell_length_c   5.15040968
_cell_angle_alpha   60.00000000
_cell_angle_beta   59.99999064
_cell_angle_gamma   59.99999064
_symmetry_Int_Tables_number   1
_chemical_formula_structural   NdInCu4
_chemical_formula_sum   'Nd1 In1 Cu4'
_cell_volume   96.60731768
_cell_formula_units_Z   1
loop_
 _symmetry_equiv_pos_site_id
 _symmetry_equiv_pos_as_xyz
  1  'x, y, z'
loop_
 _atom_site_type_symbol
 _atom_site_label
 _atom_site_symmetry_multiplicity
 _atom_site_fract_x
 _atom_site_fract_y
 _atom_site_fract_z
 _atom_site_occupancy
  Nd  Nd0  1  0.25000000  0.25000000  0.25000000  1
  In  In1  1  -0.00000000  0.00000000  0.00000000  1
  Cu  Cu2  1  0.62602098  0.62602098  0.62602098  1
  Cu  Cu3  1  0.62602098  0.62602098  0.12193707  1
  Cu  Cu4  1  0.62602098  0.12193707  0.62602098  1
  Cu  Cu5  1  0.12193707  0.62602098  0.62602098  1
