# generated using pymatgen
data_TbAsSe
_symmetry_space_group_name_H-M   'P 1'
_cell_length_a   3.90541114
_cell_length_b   3.94924442
_cell_length_c   17.55170443
_cell_angle_alpha   90.00000000
_cell_angle_beta   90.00000000
_cell_angle_gamma   90.00000000
_symmetry_Int_Tables_number   1
_chemical_formula_structural   TbAsSe
_chemical_formula_sum   'Tb4 As4 Se4'
_cell_volume   270.70736447
_cell_formula_units_Z   4
loop_
 _symmetry_equiv_pos_site_id
 _symmetry_equiv_pos_as_xyz
  1  'x, y, z'
loop_
 _atom_site_type_symbol
 _atom_site_label
 _atom_site_symmetry_multiplicity
 _atom_site_fract_x
 _atom_site_fract_y
 _atom_site_fract_z
 _atom_site_occupancy
  Tb  Tb0  1  0.75000000  0.73183433  0.63977709  1
  Tb  Tb1  1  0.25000000  0.26816567  0.36022291  1
  Tb  Tb2  1  0.75000000  0.76816567  0.13977709  1
  Tb  Tb3  1  0.25000000  0.23183433  0.86022291  1
  As  As4  1  0.25000000  0.70800557  0.99796694  1
  As  As5  1  0.75000000  0.29199443  0.00203306  1
  As  As6  1  0.25000000  0.79199443  0.49796694  1
  As  As7  1  0.75000000  0.20800557  0.50203306  1
  Se  Se8  1  0.75000000  0.73422785  0.81267562  1
  Se  Se9  1  0.25000000  0.26577215  0.18732438  1
  Se  Se10  1  0.75000000  0.76577215  0.31267562  1
  Se  Se11  1  0.25000000  0.23422785  0.68732438  1
