# generated using pymatgen
data_YZnCuP2
_symmetry_space_group_name_H-M   'P 1'
_cell_length_a   3.95548622
_cell_length_b   3.95548622
_cell_length_c   6.53154132
_cell_angle_alpha   90.00000000
_cell_angle_beta   90.00000000
_cell_angle_gamma   119.99998935
_symmetry_Int_Tables_number   1
_chemical_formula_structural   YZnCuP2
_chemical_formula_sum   'Y1 Zn1 Cu1 P2'
_cell_volume   88.50057847
_cell_formula_units_Z   1
loop_
 _symmetry_equiv_pos_site_id
 _symmetry_equiv_pos_as_xyz
  1  'x, y, z'
loop_
 _atom_site_type_symbol
 _atom_site_label
 _atom_site_symmetry_multiplicity
 _atom_site_fract_x
 _atom_site_fract_y
 _atom_site_fract_z
 _atom_site_occupancy
  Y  Y0  1  0.33333300  0.66666700  0.98454366  1
  Zn  Zn1  1  0.00000000  0.00000000  0.37650714  1
  Cu  Cu2  1  0.66666700  0.33333300  0.63950719  1
  P  P3  1  0.66666700  0.33333300  0.25670163  1
  P  P4  1  0.00000000  0.00000000  0.74274038  1
