# generated using pymatgen
data_YB4Rh
_symmetry_space_group_name_H-M   'P 1'
_cell_length_a   3.56052750
_cell_length_b   5.95627063
_cell_length_c   11.54970531
_cell_angle_alpha   89.99950970
_cell_angle_beta   90.00000587
_cell_angle_gamma   90.00000289
_symmetry_Int_Tables_number   1
_chemical_formula_structural   YB4Rh
_chemical_formula_sum   'Y4 B16 Rh4'
_cell_volume   244.93997546
_cell_formula_units_Z   4
loop_
 _symmetry_equiv_pos_site_id
 _symmetry_equiv_pos_as_xyz
  1  'x, y, z'
loop_
 _atom_site_type_symbol
 _atom_site_label
 _atom_site_symmetry_multiplicity
 _atom_site_fract_x
 _atom_site_fract_y
 _atom_site_fract_z
 _atom_site_occupancy
  Y  Y0  1  -0.00000004  0.36873891  0.14894467  1
  Y  Y1  1  0.00000003  0.63125893  0.85108369  1
  Y  Y2  1  0.00000006  0.86874722  0.35108222  1
  Y  Y3  1  -0.00000001  0.13125497  0.64888950  1
  B  B4  1  0.49999993  0.78952770  0.68663656  1
  B  B5  1  0.50000011  0.21046150  0.31335259  1
  B  B6  1  0.50000000  0.28953410  0.81334314  1
  B  B7  1  0.50000002  0.71045431  0.18666649  1
  B  B8  1  0.49999994  0.86315057  0.53081079  1
  B  B9  1  0.50000008  0.13685316  0.46916029  1
  B  B10  1  0.49999997  0.36314784  0.96918901  1
  B  B11  1  0.50000002  0.63685581  0.03083830  1
  B  B12  1  0.50000002  0.02218538  0.19219763  1
  B  B13  1  0.49999998  0.97782348  0.80781296  1
  B  B14  1  0.50000006  0.52217632  0.30782061  1
  B  B15  1  0.49999989  0.47783168  0.69216802  1
  B  B16  1  0.50000003  0.11187460  0.04677632  1
  B  B17  1  0.50000003  0.88812625  0.95324720  1
  B  B18  1  0.49999997  0.61188000  0.45322622  1
  B  B19  1  0.49999996  0.38812600  0.54675092  1
  Rh  Rh20  1  -0.00000001  0.85777943  0.09443801  1
  Rh  Rh21  1  0.00000002  0.14221838  0.90560401  1
  Rh  Rh22  1  0.00000019  0.35776699  0.40556736  1
  Rh  Rh23  1  -0.00000023  0.64222645  0.59439048  1
