# generated using pymatgen
data_TmGa2
_symmetry_space_group_name_H-M   'P 1'
_cell_length_a   4.16574156
_cell_length_b   5.70112520
_cell_length_c   5.70112481
_cell_angle_alpha   74.05248343
_cell_angle_beta   68.57126566
_cell_angle_gamma   68.57126992
_symmetry_Int_Tables_number   1
_chemical_formula_structural   TmGa2
_chemical_formula_sum   'Tm2 Ga4'
_cell_volume   115.75600044
_cell_formula_units_Z   2
loop_
 _symmetry_equiv_pos_site_id
 _symmetry_equiv_pos_as_xyz
  1  'x, y, z'
loop_
 _atom_site_type_symbol
 _atom_site_label
 _atom_site_symmetry_multiplicity
 _atom_site_fract_x
 _atom_site_fract_y
 _atom_site_fract_z
 _atom_site_occupancy
  Tm  Tm0  1  0.93896083  0.31103917  0.31103917  1
  Tm  Tm1  1  0.06103917  0.68896083  0.68896083  1
  Ga  Ga2  1  0.33962887  0.10899581  0.71174745  1
  Ga  Ga3  1  0.66037113  0.89100419  0.28825255  1
  Ga  Ga4  1  0.66037113  0.28825255  0.89100419  1
  Ga  Ga5  1  0.33962887  0.71174745  0.10899581  1
