# generated using pymatgen
data_Y2B6Os
_symmetry_space_group_name_H-M   'P 1'
_cell_length_a   3.65733212
_cell_length_b   9.15926803
_cell_length_c   11.53005284
_cell_angle_alpha   90.00000000
_cell_angle_beta   90.00000000
_cell_angle_gamma   90.00000000
_symmetry_Int_Tables_number   1
_chemical_formula_structural   Y2B6Os
_chemical_formula_sum   'Y8 B24 Os4'
_cell_volume   386.23930398
_cell_formula_units_Z   4
loop_
 _symmetry_equiv_pos_site_id
 _symmetry_equiv_pos_as_xyz
  1  'x, y, z'
loop_
 _atom_site_type_symbol
 _atom_site_label
 _atom_site_symmetry_multiplicity
 _atom_site_fract_x
 _atom_site_fract_y
 _atom_site_fract_z
 _atom_site_occupancy
  Y  Y0  1  -0.00000000  0.32220128  0.41383106  1
  Y  Y1  1  -0.00000000  0.67779872  0.58616894  1
  Y  Y2  1  0.00000000  0.82220128  0.08616894  1
  Y  Y3  1  0.00000000  0.17779872  0.91383106  1
  Y  Y4  1  -0.00000000  0.94414046  0.37362770  1
  Y  Y5  1  -0.00000000  0.05585954  0.62637230  1
  Y  Y6  1  0.00000000  0.44414046  0.12637230  1
  Y  Y7  1  0.00000000  0.55585954  0.87362770  1
  B  B8  1  0.50000000  0.55370012  0.43259692  1
  B  B9  1  0.50000000  0.44629988  0.56740308  1
  B  B10  1  0.50000000  0.05370012  0.06740308  1
  B  B11  1  0.50000000  0.94629988  0.93259692  1
  B  B12  1  0.50000000  0.74691777  0.41993428  1
  B  B13  1  0.50000000  0.25308223  0.58006572  1
  B  B14  1  0.50000000  0.24691777  0.08006572  1
  B  B15  1  0.50000000  0.75308223  0.91993428  1
  B  B16  1  0.50000000  0.79026865  0.26714572  1
  B  B17  1  0.50000000  0.20973135  0.73285428  1
  B  B18  1  0.50000000  0.29026865  0.23285428  1
  B  B19  1  0.50000000  0.70973135  0.76714572  1
  B  B20  1  0.50000000  0.63213090  0.18598782  1
  B  B21  1  0.50000000  0.36786910  0.81401218  1
  B  B22  1  0.50000000  0.13213090  0.31401218  1
  B  B23  1  0.50000000  0.86786910  0.68598782  1
  B  B24  1  0.50000000  0.98372990  0.21311009  1
  B  B25  1  0.50000000  0.01627010  0.78688991  1
  B  B26  1  0.50000000  0.48372990  0.28688991  1
  B  B27  1  0.50000000  0.51627010  0.71311009  1
  B  B28  1  0.50000000  0.61173108  0.03102349  1
  B  B29  1  0.50000000  0.38826892  0.96897651  1
  B  B30  1  0.50000000  0.11173108  0.46897651  1
  B  B31  1  0.50000000  0.88826892  0.53102349  1
  Os  Os32  1  -0.00000000  0.63731783  0.32147416  1
  Os  Os33  1  -0.00000000  0.36268217  0.67852584  1
  Os  Os34  1  0.00000000  0.13731783  0.17852584  1
  Os  Os35  1  -0.00000000  0.86268217  0.82147416  1
