# generated using pymatgen
data_Na5Hf2F13
_symmetry_space_group_name_H-M   'P 1'
_cell_length_a   6.33749015
_cell_length_b   6.33749015
_cell_length_c   8.32141211
_cell_angle_alpha   83.49529293
_cell_angle_beta   83.49529293
_cell_angle_gamma   50.87886107
_symmetry_Int_Tables_number   1
_chemical_formula_structural   Na5Hf2F13
_chemical_formula_sum   'Na5 Hf2 F13'
_cell_volume   257.24359552
_cell_formula_units_Z   1
loop_
 _symmetry_equiv_pos_site_id
 _symmetry_equiv_pos_as_xyz
  1  'x, y, z'
loop_
 _atom_site_type_symbol
 _atom_site_label
 _atom_site_symmetry_multiplicity
 _atom_site_fract_x
 _atom_site_fract_y
 _atom_site_fract_z
 _atom_site_occupancy
  Na  Na0  1  0.22258776  0.22258776  0.84599467  1
  Na  Na1  1  0.77741224  0.77741224  0.15400533  1
  Na  Na2  1  0.50000000  0.50000000  -0.00000000  1
  Na  Na3  1  0.66457612  0.66457612  0.57159692  1
  Na  Na4  1  0.33542388  0.33542388  0.42840308  1
  Hf  Hf5  1  0.92688658  0.92688658  0.74422102  1
  Hf  Hf6  1  0.07311342  0.07311342  0.25577898  1
  F  F7  1  0.05637445  0.58056810  0.64301764  1
  F  F8  1  0.58056810  0.05637445  0.64301764  1
  F  F9  1  0.94362555  0.41943190  0.35698236  1
  F  F10  1  0.41943190  0.94362555  0.35698236  1
  F  F11  1  0.64024109  0.09214061  0.93059467  1
  F  F12  1  0.09214061  0.64024109  0.93059467  1
  F  F13  1  0.35975891  0.90785939  0.06940533  1
  F  F14  1  0.90785939  0.35975891  0.06940533  1
  F  F15  1  0.30076387  0.82334674  0.74990942  1
  F  F16  1  0.82334674  0.30076387  0.74990942  1
  F  F17  1  0.69923613  0.17665326  0.25009058  1
  F  F18  1  0.17665326  0.69923613  0.25009058  1
  F  F19  1  -0.00000000  -0.00000000  0.50000000  1
