# generated using pymatgen
data_Zr2AlFe3
_symmetry_space_group_name_H-M   'P 1'
_cell_length_a   5.03074860
_cell_length_b   5.03041840
_cell_length_c   5.10214638
_cell_angle_alpha   89.99999984
_cell_angle_beta   60.47507520
_cell_angle_gamma   119.99783856
_symmetry_Int_Tables_number   1
_chemical_formula_structural   Zr2AlFe3
_chemical_formula_sum   'Zr2 Al1 Fe3'
_cell_volume   91.95389950
_cell_formula_units_Z   1
loop_
 _symmetry_equiv_pos_site_id
 _symmetry_equiv_pos_as_xyz
  1  'x, y, z'
loop_
 _atom_site_type_symbol
 _atom_site_label
 _atom_site_symmetry_multiplicity
 _atom_site_fract_x
 _atom_site_fract_y
 _atom_site_fract_z
 _atom_site_occupancy
  Zr  Zr0  1  0.50563747  0.75281874  0.74160538  1
  Zr  Zr1  1  0.99436253  0.99718126  0.00839462  1
  Al  Al2  1  0.75000000  0.37500000  0.87500000  1
  Fe  Fe3  1  0.25000000  0.37500000  0.37500000  1
  Fe  Fe4  1  0.25000000  0.87500000  0.37500000  1
  Fe  Fe5  1  0.75000000  0.37500000  0.37500000  1
