# generated using pymatgen
data_GaSn3
_symmetry_space_group_name_H-M   'P 1'
_cell_length_a   6.47346027
_cell_length_b   6.47346027
_cell_length_c   5.54996724
_cell_angle_alpha   90.00000000
_cell_angle_beta   90.00000000
_cell_angle_gamma   120.00000210
_symmetry_Int_Tables_number   1
_chemical_formula_structural   GaSn3
_chemical_formula_sum   'Ga2 Sn6'
_cell_volume   201.41602249
_cell_formula_units_Z   2
loop_
 _symmetry_equiv_pos_site_id
 _symmetry_equiv_pos_as_xyz
  1  'x, y, z'
loop_
 _atom_site_type_symbol
 _atom_site_label
 _atom_site_symmetry_multiplicity
 _atom_site_fract_x
 _atom_site_fract_y
 _atom_site_fract_z
 _atom_site_occupancy
  Ga  Ga0  1  0.33333300  0.66666700  0.75000000  1
  Ga  Ga1  1  0.66666700  0.33333300  0.25000000  1
  Sn  Sn2  1  0.16832217  0.33664434  0.25000000  1
  Sn  Sn3  1  0.66335566  0.83167783  0.25000000  1
  Sn  Sn4  1  0.16832217  0.83167783  0.25000000  1
  Sn  Sn5  1  0.83167783  0.66335566  0.75000000  1
  Sn  Sn6  1  0.33664434  0.16832217  0.75000000  1
  Sn  Sn7  1  0.83167783  0.16832217  0.75000000  1
