# generated using pymatgen
data_YbSiAg
_symmetry_space_group_name_H-M   'P 1'
_cell_length_a   6.92203999
_cell_length_b   6.92203999
_cell_length_c   4.12835237
_cell_angle_alpha   90.00000000
_cell_angle_beta   90.00000000
_cell_angle_gamma   120.00000863
_symmetry_Int_Tables_number   1
_chemical_formula_structural   YbSiAg
_chemical_formula_sum   'Yb3 Si3 Ag3'
_cell_volume   171.30717818
_cell_formula_units_Z   3
loop_
 _symmetry_equiv_pos_site_id
 _symmetry_equiv_pos_as_xyz
  1  'x, y, z'
loop_
 _atom_site_type_symbol
 _atom_site_label
 _atom_site_symmetry_multiplicity
 _atom_site_fract_x
 _atom_site_fract_y
 _atom_site_fract_z
 _atom_site_occupancy
  Yb  Yb0  1  0.00000000  0.58074384  0.50000000  1
  Yb  Yb1  1  0.58074384  0.00000000  0.50000000  1
  Yb  Yb2  1  0.41925616  0.41925616  0.50000000  1
  Si  Si3  1  0.66666700  0.33333300  0.00000000  1
  Si  Si4  1  0.33333300  0.66666700  0.00000000  1
  Si  Si5  1  0.00000000  0.00000000  0.50000000  1
  Ag  Ag6  1  0.74861182  0.74861182  0.00000000  1
  Ag  Ag7  1  0.25138818  0.00000000  0.00000000  1
  Ag  Ag8  1  0.00000000  0.25138818  0.00000000  1
