# generated using pymatgen
data_HfSiNi
_symmetry_space_group_name_H-M   'P 1'
_cell_length_a   3.76647914
_cell_length_b   6.38491665
_cell_length_c   7.17285610
_cell_angle_alpha   90.00000000
_cell_angle_beta   90.00000000
_cell_angle_gamma   90.00000000
_symmetry_Int_Tables_number   1
_chemical_formula_structural   HfSiNi
_chemical_formula_sum   'Hf4 Si4 Ni4'
_cell_volume   172.49754439
_cell_formula_units_Z   4
loop_
 _symmetry_equiv_pos_site_id
 _symmetry_equiv_pos_as_xyz
  1  'x, y, z'
loop_
 _atom_site_type_symbol
 _atom_site_label
 _atom_site_symmetry_multiplicity
 _atom_site_fract_x
 _atom_site_fract_y
 _atom_site_fract_z
 _atom_site_occupancy
  Hf  Hf0  1  0.25000000  0.01694205  0.31472356  1
  Hf  Hf1  1  0.25000000  0.51694205  0.18527644  1
  Hf  Hf2  1  0.75000000  0.98305795  0.68527644  1
  Hf  Hf3  1  0.75000000  0.48305795  0.81472356  1
  Si  Si4  1  0.25000000  0.27218685  0.61484950  1
  Si  Si5  1  0.25000000  0.77218685  0.88515050  1
  Si  Si6  1  0.75000000  0.72781315  0.38515050  1
  Si  Si7  1  0.75000000  0.22781315  0.11484950  1
  Ni  Ni8  1  0.25000000  0.13998433  0.93857327  1
  Ni  Ni9  1  0.25000000  0.63998433  0.56142673  1
  Ni  Ni10  1  0.75000000  0.86001567  0.06142673  1
  Ni  Ni11  1  0.75000000  0.36001567  0.43857327  1
