# generated using pymatgen
data_YB2Rh3
_symmetry_space_group_name_H-M   'P 1'
_cell_length_a   3.14817726
_cell_length_b   5.37371634
_cell_length_c   5.37363840
_cell_angle_alpha   59.99871155
_cell_angle_beta   89.99891013
_cell_angle_gamma   89.99884639
_symmetry_Int_Tables_number   1
_chemical_formula_structural   YB2Rh3
_chemical_formula_sum   'Y1 B2 Rh3'
_cell_volume   78.72766068
_cell_formula_units_Z   1
loop_
 _symmetry_equiv_pos_site_id
 _symmetry_equiv_pos_as_xyz
  1  'x, y, z'
loop_
 _atom_site_type_symbol
 _atom_site_label
 _atom_site_symmetry_multiplicity
 _atom_site_fract_x
 _atom_site_fract_y
 _atom_site_fract_z
 _atom_site_occupancy
  Y  Y0  1  0.50000000  0.50000006  -0.00000005  1
  B  B1  1  0.50000200  0.16667847  0.66665159  1
  B  B2  1  0.49999800  0.83332152  0.33334940  1
  Rh  Rh3  1  0.00000000  0.99999899  0.50000104  1
  Rh  Rh4  1  0.00000000  0.50000015  0.49999815  1
  Rh  Rh5  1  -0.00000000  0.00000181  -0.00000013  1
