# generated using pymatgen
data_TiGeS3
_symmetry_space_group_name_H-M   'P 1'
_cell_length_a   3.47928158
_cell_length_b   9.11405508
_cell_length_c   13.69769828
_cell_angle_alpha   90.00000000
_cell_angle_beta   90.00000000
_cell_angle_gamma   90.00000000
_symmetry_Int_Tables_number   1
_chemical_formula_structural   TiGeS3
_chemical_formula_sum   'Ti4 Ge4 S12'
_cell_volume   434.35899786
_cell_formula_units_Z   4
loop_
 _symmetry_equiv_pos_site_id
 _symmetry_equiv_pos_as_xyz
  1  'x, y, z'
loop_
 _atom_site_type_symbol
 _atom_site_label
 _atom_site_symmetry_multiplicity
 _atom_site_fract_x
 _atom_site_fract_y
 _atom_site_fract_z
 _atom_site_occupancy
  Ti  Ti0  1  0.75000000  0.35122002  0.95144813  1
  Ti  Ti1  1  0.75000000  0.85122002  0.54855187  1
  Ti  Ti2  1  0.25000000  0.64877998  0.04855187  1
  Ti  Ti3  1  0.25000000  0.14877998  0.45144813  1
  Ge  Ge4  1  0.25000000  0.07898437  0.84359660  1
  Ge  Ge5  1  0.25000000  0.57898437  0.65640340  1
  Ge  Ge6  1  0.75000000  0.92101563  0.15640340  1
  Ge  Ge7  1  0.75000000  0.42101563  0.34359660  1
  S  S8  1  0.25000000  0.51816015  0.89481443  1
  S  S9  1  0.25000000  0.01816015  0.60518557  1
  S  S10  1  0.75000000  0.48183985  0.10518557  1
  S  S11  1  0.75000000  0.98183985  0.39481443  1
  S  S12  1  0.75000000  0.23932789  0.79031409  1
  S  S13  1  0.75000000  0.73932789  0.70968591  1
  S  S14  1  0.25000000  0.76067211  0.20968591  1
  S  S15  1  0.25000000  0.26067211  0.29031409  1
  S  S16  1  0.25000000  0.18276394  0.00600699  1
  S  S17  1  0.25000000  0.68276394  0.49399301  1
  S  S18  1  0.75000000  0.81723606  0.99399301  1
  S  S19  1  0.75000000  0.31723606  0.50600699  1
