# generated using pymatgen
data_Ba2Mg17
_symmetry_space_group_name_H-M   'P 1'
_cell_length_a   8.00991333
_cell_length_b   8.00990999
_cell_length_c   8.00990261
_cell_angle_alpha   82.99020552
_cell_angle_beta   82.99016657
_cell_angle_gamma   82.99025011
_symmetry_Int_Tables_number   1
_chemical_formula_structural   Ba2Mg17
_chemical_formula_sum   'Ba2 Mg17'
_cell_volume   503.24760946
_cell_formula_units_Z   1
loop_
 _symmetry_equiv_pos_site_id
 _symmetry_equiv_pos_as_xyz
  1  'x, y, z'
loop_
 _atom_site_type_symbol
 _atom_site_label
 _atom_site_symmetry_multiplicity
 _atom_site_fract_x
 _atom_site_fract_y
 _atom_site_fract_z
 _atom_site_occupancy
  Ba  Ba0  1  0.66168620  0.66168620  0.66168620  1
  Ba  Ba1  1  0.33831380  0.33831380  0.33831380  1
  Mg  Mg2  1  0.34623512  0.34623512  0.84685022  1
  Mg  Mg3  1  0.34623512  0.84685022  0.34623512  1
  Mg  Mg4  1  0.09720674  0.09720674  0.09720674  1
  Mg  Mg5  1  0.90279326  0.90279326  0.90279326  1
  Mg  Mg6  1  0.00000000  -0.00000000  0.50000000  1
  Mg  Mg7  1  0.50000000  -0.00000000  0.00000000  1
  Mg  Mg8  1  0.00000000  0.50000000  0.00000000  1
  Mg  Mg9  1  0.29258472  0.70741528  0.00000000  1
  Mg  Mg10  1  1.00000000  0.29258472  0.70741528  1
  Mg  Mg11  1  0.70741528  0.00000000  0.29258472  1
  Mg  Mg12  1  0.70741528  0.29258472  -0.00000000  1
  Mg  Mg13  1  0.00000000  0.70741528  0.29258472  1
  Mg  Mg14  1  0.29258472  1.00000000  0.70741528  1
  Mg  Mg15  1  0.65376488  0.15314978  0.65376488  1
  Mg  Mg16  1  0.65376488  0.65376488  0.15314978  1
  Mg  Mg17  1  0.15314978  0.65376488  0.65376488  1
  Mg  Mg18  1  0.84685022  0.34623512  0.34623512  1
