# generated using pymatgen
data_Gd4Ga12Pd
_symmetry_space_group_name_H-M   'P 1'
_cell_length_a   7.46750172
_cell_length_b   7.46211028
_cell_length_c   7.46211028
_cell_angle_alpha   109.45683643
_cell_angle_beta   109.48545429
_cell_angle_gamma   109.48545429
_symmetry_Int_Tables_number   1
_chemical_formula_structural   Gd4Ga12Pd
_chemical_formula_sum   'Gd4 Ga12 Pd1'
_cell_volume   320.03776909
_cell_formula_units_Z   1
loop_
 _symmetry_equiv_pos_site_id
 _symmetry_equiv_pos_as_xyz
  1  'x, y, z'
loop_
 _atom_site_type_symbol
 _atom_site_label
 _atom_site_symmetry_multiplicity
 _atom_site_fract_x
 _atom_site_fract_y
 _atom_site_fract_z
 _atom_site_occupancy
  Gd  Gd0  1  0.00000000  0.00000000  0.50000000  1
  Gd  Gd1  1  0.00000000  0.50000000  0.00000000  1
  Gd  Gd2  1  0.50000000  0.00000000  0.00000000  1
  Gd  Gd3  1  0.50000000  0.50000000  0.50000000  1
  Ga  Ga4  1  0.75005361  0.25006144  0.50011430  1
  Ga  Ga5  1  0.75005361  0.50011430  0.25006144  1
  Ga  Ga6  1  0.50000000  0.25006057  0.74993943  1
  Ga  Ga7  1  0.24994639  0.49988570  0.74993856  1
  Ga  Ga8  1  0.24994639  0.74993856  0.49988570  1
  Ga  Ga9  1  0.50000000  0.74993943  0.25006057  1
  Ga  Ga10  1  0.70299603  0.70275376  0.99999938  1
  Ga  Ga11  1  0.29700397  0.00000062  0.29724624  1
  Ga  Ga12  1  0.00024309  0.29724608  0.29724608  1
  Ga  Ga13  1  0.29700397  0.29724624  0.00000062  1
  Ga  Ga14  1  0.70299603  0.99999938  0.70275376  1
  Ga  Ga15  1  0.99975691  0.70275392  0.70275392  1
  Pd  Pd16  1  0.00000000  0.00000000  0.00000000  1
