# generated using pymatgen
data_YSnPd
_symmetry_space_group_name_H-M   'P 1'
_cell_length_a   4.61593829
_cell_length_b   7.22340909
_cell_length_c   7.95283711
_cell_angle_alpha   90.00044616
_cell_angle_beta   90.00000000
_cell_angle_gamma   90.00000000
_symmetry_Int_Tables_number   1
_chemical_formula_structural   YSnPd
_chemical_formula_sum   'Y4 Sn4 Pd4'
_cell_volume   265.16994151
_cell_formula_units_Z   4
loop_
 _symmetry_equiv_pos_site_id
 _symmetry_equiv_pos_as_xyz
  1  'x, y, z'
loop_
 _atom_site_type_symbol
 _atom_site_label
 _atom_site_symmetry_multiplicity
 _atom_site_fract_x
 _atom_site_fract_y
 _atom_site_fract_z
 _atom_site_occupancy
  Y  Y0  1  0.25000000  0.99197356  0.29356941  1
  Y  Y1  1  0.25000000  0.49197339  0.20643358  1
  Y  Y2  1  0.75000000  0.00802776  0.70643163  1
  Y  Y3  1  0.75000000  0.50802721  0.79356746  1
  Sn  Sn4  1  0.25000000  0.30506280  0.58783362  1
  Sn  Sn5  1  0.25000000  0.80506482  0.91216771  1
  Sn  Sn6  1  0.75000000  0.69493509  0.41216286  1
  Sn  Sn7  1  0.75000000  0.19493719  0.08783750  1
  Pd  Pd8  1  0.25000000  0.20375456  0.91644011  1
  Pd  Pd9  1  0.25000000  0.70375262  0.58355947  1
  Pd  Pd10  1  0.75000000  0.79624310  0.08355336  1
  Pd  Pd11  1  0.75000000  0.29624790  0.41644528  1
