# generated using pymatgen
data_ThCrS3
_symmetry_space_group_name_H-M   'P 1'
_cell_length_a   6.26398333
_cell_length_b   7.45661935
_cell_length_c   8.93150794
_cell_angle_alpha   90.00000000
_cell_angle_beta   90.00000000
_cell_angle_gamma   90.00000000
_symmetry_Int_Tables_number   1
_chemical_formula_structural   ThCrS3
_chemical_formula_sum   'Th4 Cr4 S12'
_cell_volume   417.17411708
_cell_formula_units_Z   4
loop_
 _symmetry_equiv_pos_site_id
 _symmetry_equiv_pos_as_xyz
  1  'x, y, z'
loop_
 _atom_site_type_symbol
 _atom_site_label
 _atom_site_symmetry_multiplicity
 _atom_site_fract_x
 _atom_site_fract_y
 _atom_site_fract_z
 _atom_site_occupancy
  Th  Th0  1  0.45279686  0.88283229  0.25000000  1
  Th  Th1  1  0.04720314  0.38283229  0.25000000  1
  Th  Th2  1  0.54720314  0.11716771  0.75000000  1
  Th  Th3  1  0.95279686  0.61716771  0.75000000  1
  Cr  Cr4  1  0.50000000  0.50000000  -0.00000000  1
  Cr  Cr5  1  0.00000000  -0.00000000  0.50000000  1
  Cr  Cr6  1  0.50000000  0.50000000  0.50000000  1
  Cr  Cr7  1  0.00000000  -0.00000000  -0.00000000  1
  S  S8  1  0.63575223  0.53896962  0.25000000  1
  S  S9  1  0.86424777  0.03896962  0.25000000  1
  S  S10  1  0.36424777  0.46103038  0.75000000  1
  S  S11  1  0.13575223  0.96103038  0.75000000  1
  S  S12  1  0.67554767  0.83143819  0.55703560  1
  S  S13  1  0.82445233  0.33143819  0.94296440  1
  S  S14  1  0.32445233  0.16856181  0.05703560  1
  S  S15  1  0.17554767  0.66856181  0.44296440  1
  S  S16  1  0.32445233  0.16856181  0.44296440  1
  S  S17  1  0.17554767  0.66856181  0.05703560  1
  S  S18  1  0.67554767  0.83143819  0.94296440  1
  S  S19  1  0.82445233  0.33143819  0.55703560  1
