# generated using pymatgen
data_EuCdPd
_symmetry_space_group_name_H-M   'P 1'
_cell_length_a   4.38424874
_cell_length_b   7.44406485
_cell_length_c   8.65783110
_cell_angle_alpha   89.99939294
_cell_angle_beta   90.00000000
_cell_angle_gamma   90.00000000
_symmetry_Int_Tables_number   1
_chemical_formula_structural   EuCdPd
_chemical_formula_sum   'Eu4 Cd4 Pd4'
_cell_volume   282.56244699
_cell_formula_units_Z   4
loop_
 _symmetry_equiv_pos_site_id
 _symmetry_equiv_pos_as_xyz
  1  'x, y, z'
loop_
 _atom_site_type_symbol
 _atom_site_label
 _atom_site_symmetry_multiplicity
 _atom_site_fract_x
 _atom_site_fract_y
 _atom_site_fract_z
 _atom_site_occupancy
  Eu  Eu0  1  0.25000000  0.53550614  0.81879877  1
  Eu  Eu1  1  0.75000000  0.46450606  0.18118977  1
  Eu  Eu2  1  0.25000000  0.03549854  0.68118961  1
  Eu  Eu3  1  0.75000000  0.96450794  0.31881491  1
  Cd  Cd4  1  0.25000000  0.14111225  0.06220777  1
  Cd  Cd5  1  0.75000000  0.35889536  0.56222555  1
  Cd  Cd6  1  0.25000000  0.64110389  0.43779524  1
  Cd  Cd7  1  0.75000000  0.85887397  0.93777720  1
  Pd  Pd8  1  0.75000000  0.23852774  0.87321022  1
  Pd  Pd9  1  0.25000000  0.26150738  0.37322678  1
  Pd  Pd10  1  0.75000000  0.73847963  0.62679639  1
  Pd  Pd11  1  0.25000000  0.76147911  0.12676679  1
