# generated using pymatgen
data_Nd(ZnSi)2
_symmetry_space_group_name_H-M   'P 1'
_cell_length_a   6.05994378
_cell_length_b   6.05994378
_cell_length_c   6.05994378
_cell_angle_alpha   140.24985605
_cell_angle_beta   140.24985605
_cell_angle_gamma   57.47412373
_symmetry_Int_Tables_number   1
_chemical_formula_structural   Nd(ZnSi)2
_chemical_formula_sum   'Nd1 Zn2 Si2'
_cell_volume   90.21237001
_cell_formula_units_Z   1
loop_
 _symmetry_equiv_pos_site_id
 _symmetry_equiv_pos_as_xyz
  1  'x, y, z'
loop_
 _atom_site_type_symbol
 _atom_site_label
 _atom_site_symmetry_multiplicity
 _atom_site_fract_x
 _atom_site_fract_y
 _atom_site_fract_z
 _atom_site_occupancy
  Nd  Nd0  1  -0.00000000  -0.00000000  0.00000000  1
  Zn  Zn1  1  0.75000000  0.25000000  0.50000000  1
  Zn  Zn2  1  0.25000000  0.75000000  0.50000000  1
  Si  Si3  1  0.38729165  0.38729165  -0.00000000  1
  Si  Si4  1  0.61270835  0.61270835  0.00000000  1
