# generated using pymatgen
data_ThAlRh
_symmetry_space_group_name_H-M   'P 1'
_cell_length_a   7.17314651
_cell_length_b   7.17314651
_cell_length_c   4.14790412
_cell_angle_alpha   90.00000000
_cell_angle_beta   90.00000000
_cell_angle_gamma   119.99999418
_symmetry_Int_Tables_number   1
_chemical_formula_structural   ThAlRh
_chemical_formula_sum   'Th3 Al3 Rh3'
_cell_volume   184.83268340
_cell_formula_units_Z   3
loop_
 _symmetry_equiv_pos_site_id
 _symmetry_equiv_pos_as_xyz
  1  'x, y, z'
loop_
 _atom_site_type_symbol
 _atom_site_label
 _atom_site_symmetry_multiplicity
 _atom_site_fract_x
 _atom_site_fract_y
 _atom_site_fract_z
 _atom_site_occupancy
  Th  Th0  1  0.00000000  0.42000776  0.50000000  1
  Th  Th1  1  0.57999224  0.57999224  0.50000000  1
  Th  Th2  1  0.42000776  0.00000000  0.50000000  1
  Al  Al3  1  0.00000000  0.77328275  0.00000000  1
  Al  Al4  1  0.22671725  0.22671725  -0.00000000  1
  Al  Al5  1  0.77328275  0.00000000  -0.00000000  1
  Rh  Rh6  1  0.33333300  0.66666700  0.00000000  1
  Rh  Rh7  1  0.66666700  0.33333300  0.00000000  1
  Rh  Rh8  1  -0.00000000  0.00000000  0.50000000  1
