# generated using pymatgen
data_BaAlBO3F2
_symmetry_space_group_name_H-M   'P 1'
_cell_length_a   4.88380025
_cell_length_b   4.88380064
_cell_length_c   9.35873904
_cell_angle_alpha   90.00000000
_cell_angle_beta   90.00000000
_cell_angle_gamma   120.00000187
_symmetry_Int_Tables_number   1
_chemical_formula_structural   BaAlBO3F2
_chemical_formula_sum   'Ba2 Al2 B2 O6 F4'
_cell_volume   193.31421099
_cell_formula_units_Z   2
loop_
 _symmetry_equiv_pos_site_id
 _symmetry_equiv_pos_as_xyz
  1  'x, y, z'
loop_
 _atom_site_type_symbol
 _atom_site_label
 _atom_site_symmetry_multiplicity
 _atom_site_fract_x
 _atom_site_fract_y
 _atom_site_fract_z
 _atom_site_occupancy
  Ba  Ba0  1  -0.00000000  -0.00000000  0.50000000  1
  Ba  Ba1  1  -0.00000000  -0.00000000  0.00000000  1
  Al  Al2  1  0.66666700  0.33333300  0.75000000  1
  Al  Al3  1  0.33333300  0.66666700  0.25000000  1
  B  B4  1  0.33333300  0.66666700  0.75000000  1
  B  B5  1  0.66666700  0.33333300  0.25000000  1
  O  O6  1  0.32895010  0.94509053  0.75000000  1
  O  O7  1  0.61614043  0.67104990  0.75000000  1
  O  O8  1  0.94509053  0.61614043  0.25000000  1
  O  O9  1  0.38385957  0.32895010  0.25000000  1
  O  O10  1  0.05490947  0.38385957  0.75000000  1
  O  O11  1  0.67104990  0.05490947  0.25000000  1
  F  F12  1  0.66666700  0.33333300  0.94640398  1
  F  F13  1  0.33333300  0.66666700  0.44640398  1
  F  F14  1  0.66666700  0.33333300  0.55359602  1
  F  F15  1  0.33333300  0.66666700  0.05359602  1
