# generated using pymatgen
data_CsCOF3
_symmetry_space_group_name_H-M   'P 1'
_cell_length_a   7.69891576
_cell_length_b   5.90645137
_cell_length_c   9.42489971
_cell_angle_alpha   89.27446189
_cell_angle_beta   90.00000000
_cell_angle_gamma   90.00000000
_symmetry_Int_Tables_number   1
_chemical_formula_structural   CsCOF3
_chemical_formula_sum   'Cs4 C4 O4 F12'
_cell_volume   428.54666244
_cell_formula_units_Z   4
loop_
 _symmetry_equiv_pos_site_id
 _symmetry_equiv_pos_as_xyz
  1  'x, y, z'
loop_
 _atom_site_type_symbol
 _atom_site_label
 _atom_site_symmetry_multiplicity
 _atom_site_fract_x
 _atom_site_fract_y
 _atom_site_fract_z
 _atom_site_occupancy
  Cs  Cs0  1  0.65807298  0.26470467  0.18004806  1
  Cs  Cs1  1  0.15807298  0.73529533  0.31995194  1
  Cs  Cs2  1  0.34192702  0.73529533  0.81995194  1
  Cs  Cs3  1  0.84192702  0.26470467  0.68004806  1
  C  C4  1  0.29522590  0.26517436  0.56739520  1
  C  C5  1  0.79522590  0.73482564  0.93260480  1
  C  C6  1  0.70477410  0.73482564  0.43260480  1
  C  C7  1  0.20477410  0.26517436  0.06739520  1
  O  O8  1  0.29349568  0.43538248  0.08346321  1
  O  O9  1  0.70650432  0.56461752  0.91653679  1
  O  O10  1  0.20650432  0.43538248  0.58346321  1
  O  O11  1  0.79349568  0.56461752  0.41653679  1
  F  F12  1  0.12003127  0.24053538  0.93526586  1
  F  F13  1  0.37996873  0.24053538  0.43526586  1
  F  F14  1  0.62003127  0.75946462  0.56473414  1
  F  F15  1  0.87996873  0.75946462  0.06473414  1
  F  F16  1  0.29598235  0.05210115  0.07979705  1
  F  F17  1  0.79598235  0.94789885  0.42020295  1
  F  F18  1  0.70401765  0.94789885  0.92020295  1
  F  F19  1  0.20401765  0.05210115  0.57979705  1
  F  F20  1  0.06671973  0.22962975  0.16611004  1
  F  F21  1  0.56671973  0.77037025  0.33388996  1
  F  F22  1  0.93328027  0.77037025  0.83388996  1
  F  F23  1  0.43328027  0.22962975  0.66611004  1
