# generated using pymatgen
data_HoGaAg
_symmetry_space_group_name_H-M   'P 1'
_cell_length_a   5.67093023
_cell_length_b   5.67093023
_cell_length_c   7.09718443
_cell_angle_alpha   52.21776906
_cell_angle_beta   52.21776906
_cell_angle_gamma   46.61672034
_symmetry_Int_Tables_number   1
_chemical_formula_structural   HoGaAg
_chemical_formula_sum   'Ho2 Ga2 Ag2'
_cell_volume   123.57473996
_cell_formula_units_Z   2
loop_
 _symmetry_equiv_pos_site_id
 _symmetry_equiv_pos_as_xyz
  1  'x, y, z'
loop_
 _atom_site_type_symbol
 _atom_site_label
 _atom_site_symmetry_multiplicity
 _atom_site_fract_x
 _atom_site_fract_y
 _atom_site_fract_z
 _atom_site_occupancy
  Ho  Ho0  1  0.53405067  0.53405067  0.70952514  1
  Ho  Ho1  1  0.46594933  0.46594933  0.29047486  1
  Ga  Ga2  1  0.84185828  0.84185828  0.11831966  1
  Ga  Ga3  1  0.15814172  0.15814172  0.88168034  1
  Ag  Ag4  1  0.17316888  0.17316888  0.27875651  1
  Ag  Ag5  1  0.82683112  0.82683112  0.72124349  1
