# generated using pymatgen
data_HoAlAu
_symmetry_space_group_name_H-M   'P 1'
_cell_length_a   4.43642568
_cell_length_b   7.12423645
_cell_length_c   7.73640337
_cell_angle_alpha   89.99925763
_cell_angle_beta   90.00000000
_cell_angle_gamma   90.00000000
_symmetry_Int_Tables_number   1
_chemical_formula_structural   HoAlAu
_chemical_formula_sum   'Ho4 Al4 Au4'
_cell_volume   244.51789084
_cell_formula_units_Z   4
loop_
 _symmetry_equiv_pos_site_id
 _symmetry_equiv_pos_as_xyz
  1  'x, y, z'
loop_
 _atom_site_type_symbol
 _atom_site_label
 _atom_site_symmetry_multiplicity
 _atom_site_fract_x
 _atom_site_fract_y
 _atom_site_fract_z
 _atom_site_occupancy
  Ho  Ho0  1  0.25000000  0.00794566  0.30078510  1
  Ho  Ho1  1  0.25000000  0.50793420  0.19929856  1
  Ho  Ho2  1  0.75000000  0.99204725  0.69927728  1
  Ho  Ho3  1  0.75000000  0.49205749  0.80063803  1
  Al  Al4  1  0.25000000  0.17527444  0.92211184  1
  Al  Al5  1  0.25000000  0.67524207  0.57787595  1
  Al  Al6  1  0.75000000  0.82474156  0.07782856  1
  Al  Al7  1  0.75000000  0.32475156  0.42219231  1
  Au  Au8  1  0.25000000  0.28585963  0.59390738  1
  Au  Au9  1  0.25000000  0.78584383  0.90604182  1
  Au  Au10  1  0.75000000  0.71413557  0.40621958  1
  Au  Au11  1  0.75000000  0.21416573  0.09382459  1
