# generated using pymatgen
data_NaGeAu3
_symmetry_space_group_name_H-M   'P 1'
_cell_length_a   9.08579863
_cell_length_b   9.08579863
_cell_length_c   9.08579863
_cell_angle_alpha   90.00000000
_cell_angle_beta   90.00000000
_cell_angle_gamma   90.00000000
_symmetry_Int_Tables_number   1
_chemical_formula_structural   NaGeAu3
_chemical_formula_sum   'Na8 Ge8 Au24'
_cell_volume   750.04845662
_cell_formula_units_Z   8
loop_
 _symmetry_equiv_pos_site_id
 _symmetry_equiv_pos_as_xyz
  1  'x, y, z'
loop_
 _atom_site_type_symbol
 _atom_site_label
 _atom_site_symmetry_multiplicity
 _atom_site_fract_x
 _atom_site_fract_y
 _atom_site_fract_z
 _atom_site_occupancy
  Na  Na0  1  0.09918079  0.09918079  0.09918079  1
  Na  Na1  1  0.40081921  0.90081921  0.59918079  1
  Na  Na2  1  0.59918079  0.40081921  0.90081921  1
  Na  Na3  1  0.90081921  0.59918079  0.40081921  1
  Na  Na4  1  0.90081921  0.90081921  0.90081921  1
  Na  Na5  1  0.59918079  0.09918079  0.40081921  1
  Na  Na6  1  0.40081921  0.59918079  0.09918079  1
  Na  Na7  1  0.09918079  0.40081921  0.59918079  1
  Ge  Ge8  1  0.11539879  0.88460121  0.38460121  1
  Ge  Ge9  1  0.88460121  0.38460121  0.11539879  1
  Ge  Ge10  1  0.61539879  0.61539879  0.61539879  1
  Ge  Ge11  1  0.61539879  0.88460121  0.11539879  1
  Ge  Ge12  1  0.88460121  0.11539879  0.61539879  1
  Ge  Ge13  1  0.11539879  0.61539879  0.88460121  1
  Ge  Ge14  1  0.38460121  0.38460121  0.38460121  1
  Ge  Ge15  1  0.38460121  0.11539879  0.88460121  1
  Au  Au16  1  0.59198058  0.73136727  0.36427605  1
  Au  Au17  1  0.73136727  0.36427605  0.59198058  1
  Au  Au18  1  0.76863273  0.63572395  0.09198058  1
  Au  Au19  1  0.26863273  0.86427605  0.90801942  1
  Au  Au20  1  0.63572395  0.09198058  0.76863273  1
  Au  Au21  1  0.59198058  0.76863273  0.86427605  1
  Au  Au22  1  0.86427605  0.59198058  0.76863273  1
  Au  Au23  1  0.63572395  0.40801942  0.26863273  1
  Au  Au24  1  0.09198058  0.73136727  0.13572395  1
  Au  Au25  1  0.13572395  0.09198058  0.73136727  1
  Au  Au26  1  0.90801942  0.23136727  0.36427605  1
  Au  Au27  1  0.40801942  0.26863273  0.63572395  1
  Au  Au28  1  0.36427605  0.90801942  0.23136727  1
  Au  Au29  1  0.26863273  0.63572395  0.40801942  1
  Au  Au30  1  0.23136727  0.36427605  0.90801942  1
  Au  Au31  1  0.73136727  0.13572395  0.09198058  1
  Au  Au32  1  0.09198058  0.76863273  0.63572395  1
  Au  Au33  1  0.86427605  0.90801942  0.26863273  1
  Au  Au34  1  0.90801942  0.26863273  0.86427605  1
  Au  Au35  1  0.36427605  0.59198058  0.73136727  1
  Au  Au36  1  0.13572395  0.40801942  0.23136727  1
  Au  Au37  1  0.40801942  0.23136727  0.13572395  1
  Au  Au38  1  0.23136727  0.13572395  0.40801942  1
  Au  Au39  1  0.76863273  0.86427605  0.59198058  1
