# generated using pymatgen
data_EuBPt4
_symmetry_space_group_name_H-M   'P 1'
_cell_length_a   5.50128419
_cell_length_b   5.50068031
_cell_length_c   7.57860179
_cell_angle_alpha   90.00000000
_cell_angle_beta   90.00000000
_cell_angle_gamma   120.00191113
_symmetry_Int_Tables_number   1
_chemical_formula_structural   EuBPt4
_chemical_formula_sum   'Eu2 B2 Pt8'
_cell_volume   198.60576106
_cell_formula_units_Z   2
loop_
 _symmetry_equiv_pos_site_id
 _symmetry_equiv_pos_as_xyz
  1  'x, y, z'
loop_
 _atom_site_type_symbol
 _atom_site_label
 _atom_site_symmetry_multiplicity
 _atom_site_fract_x
 _atom_site_fract_y
 _atom_site_fract_z
 _atom_site_occupancy
  Eu  Eu0  1  0.00000000  -0.00000000  0.50000000  1
  Eu  Eu1  1  0.00000000  -0.00000000  0.00000000  1
  B  B2  1  0.66666235  0.33331213  0.50000000  1
  B  B3  1  0.33333765  0.66668787  0.50000000  1
  Pt  Pt4  1  0.50000000  0.50000000  0.69888580  1
  Pt  Pt5  1  0.50000000  -0.00000000  0.69895588  1
  Pt  Pt6  1  0.00000000  0.50000000  0.69888523  1
  Pt  Pt7  1  0.50000000  0.50000000  0.30111420  1
  Pt  Pt8  1  0.50000000  -0.00000000  0.30104412  1
  Pt  Pt9  1  0.00000000  0.50000000  0.30111477  1
  Pt  Pt10  1  0.66665122  0.33332771  -0.00000000  1
  Pt  Pt11  1  0.33334878  0.66667229  0.00000000  1
