# generated using pymatgen
data_GdZnRh
_symmetry_space_group_name_H-M   'P 1'
_cell_length_a   4.05066427
_cell_length_b   6.94600721
_cell_length_c   8.09969471
_cell_angle_alpha   90.00000000
_cell_angle_beta   90.00000000
_cell_angle_gamma   90.00000000
_symmetry_Int_Tables_number   1
_chemical_formula_structural   GdZnRh
_chemical_formula_sum   'Gd4 Zn4 Rh4'
_cell_volume   227.89255050
_cell_formula_units_Z   4
loop_
 _symmetry_equiv_pos_site_id
 _symmetry_equiv_pos_as_xyz
  1  'x, y, z'
loop_
 _atom_site_type_symbol
 _atom_site_label
 _atom_site_symmetry_multiplicity
 _atom_site_fract_x
 _atom_site_fract_y
 _atom_site_fract_z
 _atom_site_occupancy
  Gd  Gd0  1  0.25000000  0.03738153  0.31543882  1
  Gd  Gd1  1  0.25000000  0.53738153  0.18456018  1
  Gd  Gd2  1  0.75000000  0.96261847  0.68456018  1
  Gd  Gd3  1  0.75000000  0.46261747  0.81543882  1
  Zn  Zn4  1  0.25000000  0.63638645  0.56278853  1
  Zn  Zn5  1  0.25000000  0.13638645  0.93721247  1
  Zn  Zn6  1  0.75000000  0.36361255  0.43721247  1
  Zn  Zn7  1  0.75000000  0.86361355  0.06278853  1
  Rh  Rh8  1  0.25000000  0.25750077  0.62230998  1
  Rh  Rh9  1  0.25000000  0.75749877  0.87769002  1
  Rh  Rh10  1  0.75000000  0.74250123  0.37769002  1
  Rh  Rh11  1  0.75000000  0.24249823  0.12231098  1
