# generated using pymatgen
data_HoCdNi4
_symmetry_space_group_name_H-M   'P 1'
_cell_length_a   4.91059052
_cell_length_b   4.91058173
_cell_length_c   4.91058245
_cell_angle_alpha   60.00395781
_cell_angle_beta   60.00402259
_cell_angle_gamma   60.00401711
_symmetry_Int_Tables_number   1
_chemical_formula_structural   HoCdNi4
_chemical_formula_sum   'Ho1 Cd1 Ni4'
_cell_volume   83.73828251
_cell_formula_units_Z   1
loop_
 _symmetry_equiv_pos_site_id
 _symmetry_equiv_pos_as_xyz
  1  'x, y, z'
loop_
 _atom_site_type_symbol
 _atom_site_label
 _atom_site_symmetry_multiplicity
 _atom_site_fract_x
 _atom_site_fract_y
 _atom_site_fract_z
 _atom_site_occupancy
  Ho  Ho0  1  0.25000229  0.25000033  0.25000043  1
  Cd  Cd1  1  0.99999718  0.00000024  -0.00000004  1
  Ni  Ni2  1  0.62612069  0.62612041  0.12163828  1
  Ni  Ni3  1  0.62612070  0.12163829  0.62612044  1
  Ni  Ni4  1  0.12163777  0.62612047  0.62612045  1
  Ni  Ni5  1  0.62612136  0.62612125  0.62612144  1
