# generated using pymatgen
data_Dy2B6Os
_symmetry_space_group_name_H-M   'P 1'
_cell_length_a   3.65568642
_cell_length_b   9.14793537
_cell_length_c   11.51428735
_cell_angle_alpha   90.00003336
_cell_angle_beta   90.00000087
_cell_angle_gamma   90.00000257
_symmetry_Int_Tables_number   1
_chemical_formula_structural   Dy2B6Os
_chemical_formula_sum   'Dy8 B24 Os4'
_cell_volume   385.06060300
_cell_formula_units_Z   4
loop_
 _symmetry_equiv_pos_site_id
 _symmetry_equiv_pos_as_xyz
  1  'x, y, z'
loop_
 _atom_site_type_symbol
 _atom_site_label
 _atom_site_symmetry_multiplicity
 _atom_site_fract_x
 _atom_site_fract_y
 _atom_site_fract_z
 _atom_site_occupancy
  Dy  Dy0  1  0.00000009  0.32223305  0.41397284  1
  Dy  Dy1  1  0.00000004  0.67776869  0.58602796  1
  Dy  Dy2  1  0.00000005  0.82223146  0.08600779  1
  Dy  Dy3  1  -0.00000005  0.17776721  0.91399243  1
  Dy  Dy4  1  -0.00000006  0.94416318  0.37341031  1
  Dy  Dy5  1  -0.00000001  0.05583574  0.62658907  1
  Dy  Dy6  1  -0.00000010  0.44416034  0.12656788  1
  Dy  Dy7  1  -0.00000007  0.55584055  0.87343169  1
  B  B8  1  0.50000003  0.55379002  0.43279747  1
  B  B9  1  0.50000007  0.44621297  0.56720114  1
  B  B10  1  0.50000004  0.05378270  0.06718035  1
  B  B11  1  0.49999992  0.94621388  0.93281824  1
  B  B12  1  0.50000004  0.74729463  0.42003407  1
  B  B13  1  0.50000007  0.25270387  0.57996642  1
  B  B14  1  0.50000006  0.24730123  0.07995241  1
  B  B15  1  0.49999996  0.75270003  0.92004811  1
  B  B16  1  0.50000002  0.79046662  0.26703862  1
  B  B17  1  0.50000017  0.20953422  0.73295997  1
  B  B18  1  0.50000006  0.29046097  0.23293413  1
  B  B19  1  0.49999998  0.70953885  0.76706504  1
  B  B20  1  0.50000003  0.63221578  0.18581069  1
  B  B21  1  0.50000001  0.36778432  0.81419041  1
  B  B22  1  0.49999997  0.13221929  0.31416439  1
  B  B23  1  0.50000003  0.86777986  0.68583728  1
  B  B24  1  0.49999999  0.98380194  0.21310497  1
  B  B25  1  0.49999988  0.01619207  0.78689675  1
  B  B26  1  0.50000001  0.48380466  0.28687123  1
  B  B27  1  0.50000002  0.51620089  0.71313024  1
  B  B28  1  0.50000003  0.61128385  0.03089453  1
  B  B29  1  0.50000002  0.38871711  0.96910501  1
  B  B30  1  0.50000006  0.11127746  0.46910383  1
  B  B31  1  0.50000005  0.88872127  0.53089622  1
  Os  Os32  1  0.00000001  0.63736294  0.32162605  1
  Os  Os33  1  -0.00000003  0.36264389  0.67837272  1
  Os  Os34  1  -0.00000014  0.13734286  0.17833134  1
  Os  Os35  1  -0.00000028  0.86264962  0.82166640  1
