# generated using pymatgen
data_Yb(YSe2)2
_symmetry_space_group_name_H-M   'P 1'
_cell_length_a   4.04869617
_cell_length_b   6.95522542
_cell_length_c   6.89156322
_cell_angle_alpha   71.41717204
_cell_angle_beta   90.00000000
_cell_angle_gamma   90.00000000
_symmetry_Int_Tables_number   1
_chemical_formula_structural   Yb(YSe2)2
_chemical_formula_sum   'Yb1 Y2 Se4'
_cell_volume   183.94591758
_cell_formula_units_Z   1
loop_
 _symmetry_equiv_pos_site_id
 _symmetry_equiv_pos_as_xyz
  1  'x, y, z'
loop_
 _atom_site_type_symbol
 _atom_site_label
 _atom_site_symmetry_multiplicity
 _atom_site_fract_x
 _atom_site_fract_y
 _atom_site_fract_z
 _atom_site_occupancy
  Yb  Yb0  1  0.00000000  0.50000000  0.50000000  1
  Y  Y1  1  0.00000000  0.00000000  0.00000000  1
  Y  Y2  1  0.50000000  0.50000000  0.00000000  1
  Se  Se3  1  0.50000000  0.75132270  0.26059923  1
  Se  Se4  1  0.00000000  0.25395430  0.25133528  1
  Se  Se5  1  0.50000000  0.24867730  0.73940077  1
  Se  Se6  1  0.00000000  0.74604570  0.74866472  1
