# generated using pymatgen
data_LaAlZn
_symmetry_space_group_name_H-M   'P 1'
_cell_length_a   5.85054916
_cell_length_b   5.85054916
_cell_length_c   7.72846017
_cell_angle_alpha   50.11074812
_cell_angle_beta   50.11074812
_cell_angle_gamma   46.98967047
_symmetry_Int_Tables_number   1
_chemical_formula_structural   LaAlZn
_chemical_formula_sum   'La2 Al2 Zn2'
_cell_volume   138.27863362
_cell_formula_units_Z   2
loop_
 _symmetry_equiv_pos_site_id
 _symmetry_equiv_pos_as_xyz
  1  'x, y, z'
loop_
 _atom_site_type_symbol
 _atom_site_label
 _atom_site_symmetry_multiplicity
 _atom_site_fract_x
 _atom_site_fract_y
 _atom_site_fract_z
 _atom_site_occupancy
  La  La0  1  0.45793814  0.45793814  0.79485891  1
  La  La1  1  0.54206186  0.54206186  0.20514109  1
  Al  Al2  1  0.83803446  0.83803446  0.60033131  1
  Al  Al3  1  0.16196554  0.16196554  0.39966869  1
  Zn  Zn4  1  0.16376884  0.16376884  0.77413832  1
  Zn  Zn5  1  0.83623116  0.83623116  0.22586168  1
