# generated using pymatgen
data_GdSnGe
_symmetry_space_group_name_H-M   'P 1'
_cell_length_a   8.76007006
_cell_length_b   8.76007006
_cell_length_c   4.04124263
_cell_angle_alpha   90.00000000
_cell_angle_beta   90.00000000
_cell_angle_gamma   151.82247635
_symmetry_Int_Tables_number   1
_chemical_formula_structural   GdSnGe
_chemical_formula_sum   'Gd2 Sn2 Ge2'
_cell_volume   146.44032068
_cell_formula_units_Z   2
loop_
 _symmetry_equiv_pos_site_id
 _symmetry_equiv_pos_as_xyz
  1  'x, y, z'
loop_
 _atom_site_type_symbol
 _atom_site_label
 _atom_site_symmetry_multiplicity
 _atom_site_fract_x
 _atom_site_fract_y
 _atom_site_fract_z
 _atom_site_occupancy
  Gd  Gd0  1  0.40373916  0.59626084  0.25000000  1
  Gd  Gd1  1  0.59626084  0.40373916  0.75000000  1
  Sn  Sn2  1  0.75831508  0.24168492  0.25000000  1
  Sn  Sn3  1  0.24168492  0.75831508  0.75000000  1
  Ge  Ge4  1  0.04849225  0.95150775  0.25000000  1
  Ge  Ge5  1  0.95150775  0.04849225  0.75000000  1
