# generated using pymatgen
data_CaSnAu
_symmetry_space_group_name_H-M   'P 1'
_cell_length_a   4.75934122
_cell_length_b   6.02155360
_cell_length_c   6.02155360
_cell_angle_alpha   75.39445373
_cell_angle_beta   66.72203730
_cell_angle_gamma   66.72203730
_symmetry_Int_Tables_number   1
_chemical_formula_structural   CaSnAu
_chemical_formula_sum   'Ca2 Sn2 Au2'
_cell_volume   144.67293089
_cell_formula_units_Z   2
loop_
 _symmetry_equiv_pos_site_id
 _symmetry_equiv_pos_as_xyz
  1  'x, y, z'
loop_
 _atom_site_type_symbol
 _atom_site_label
 _atom_site_symmetry_multiplicity
 _atom_site_fract_x
 _atom_site_fract_y
 _atom_site_fract_z
 _atom_site_occupancy
  Ca  Ca0  1  0.68323831  0.31676169  0.31676169  1
  Ca  Ca1  1  0.62466747  0.87533253  0.87533253  1
  Sn  Sn2  1  0.98620658  0.30754221  0.72004462  1
  Sn  Sn3  1  0.98620658  0.72004462  0.30754221  1
  Au  Au4  1  0.31755153  0.91342442  0.45147352  1
  Au  Au5  1  0.31755153  0.45147352  0.91342442  1
