# generated using pymatgen
data_ThTeAs
_symmetry_space_group_name_H-M   'P 1'
_cell_length_a   4.32078964
_cell_length_b   4.32078964
_cell_length_c   8.90231738
_cell_angle_alpha   90.00000000
_cell_angle_beta   90.00000000
_cell_angle_gamma   90.00000000
_symmetry_Int_Tables_number   1
_chemical_formula_structural   ThTeAs
_chemical_formula_sum   'Th2 Te2 As2'
_cell_volume   166.19934939
_cell_formula_units_Z   2
loop_
 _symmetry_equiv_pos_site_id
 _symmetry_equiv_pos_as_xyz
  1  'x, y, z'
loop_
 _atom_site_type_symbol
 _atom_site_label
 _atom_site_symmetry_multiplicity
 _atom_site_fract_x
 _atom_site_fract_y
 _atom_site_fract_z
 _atom_site_occupancy
  Th  Th0  1  0.75000000  0.75000000  0.75956127  1
  Th  Th1  1  0.25000000  0.25000000  0.24043873  1
  Te  Te2  1  0.75000000  0.75000000  0.37145451  1
  Te  Te3  1  0.25000000  0.25000000  0.62854549  1
  As  As4  1  0.75000000  0.25000000  0.00000000  1
  As  As5  1  0.25000000  0.75000000  0.00000000  1
