# generated using pymatgen
data_KEuS2
_symmetry_space_group_name_H-M   'P 1'
_cell_length_a   4.20149585
_cell_length_b   4.20149658
_cell_length_c   7.63010634
_cell_angle_alpha   74.01870900
_cell_angle_beta   74.01870730
_cell_angle_gamma   60.00001090
_symmetry_Int_Tables_number   1
_chemical_formula_structural   KEuS2
_chemical_formula_sum   'K1 Eu1 S2'
_cell_volume   110.59410862
_cell_formula_units_Z   1
loop_
 _symmetry_equiv_pos_site_id
 _symmetry_equiv_pos_as_xyz
  1  'x, y, z'
loop_
 _atom_site_type_symbol
 _atom_site_label
 _atom_site_symmetry_multiplicity
 _atom_site_fract_x
 _atom_site_fract_y
 _atom_site_fract_z
 _atom_site_occupancy
  K  K0  1  0.50000000  0.50000000  0.50000000  1
  Eu  Eu1  1  0.00000000  0.00000000  -0.00000000  1
  S  S2  1  0.73498292  0.73498292  0.79505125  1
  S  S3  1  0.26501708  0.26501708  0.20494875  1
