# generated using pymatgen
data_Rb2As2Pt
_symmetry_space_group_name_H-M   'P 1'
_cell_length_a   6.33572363
_cell_length_b   6.71912942
_cell_length_c   8.03291570
_cell_angle_alpha   114.72256028
_cell_angle_beta   90.00000000
_cell_angle_gamma   90.00000000
_symmetry_Int_Tables_number   1
_chemical_formula_structural   Rb2As2Pt
_chemical_formula_sum   'Rb4 As4 Pt2'
_cell_volume   310.62226824
_cell_formula_units_Z   2
loop_
 _symmetry_equiv_pos_site_id
 _symmetry_equiv_pos_as_xyz
  1  'x, y, z'
loop_
 _atom_site_type_symbol
 _atom_site_label
 _atom_site_symmetry_multiplicity
 _atom_site_fract_x
 _atom_site_fract_y
 _atom_site_fract_z
 _atom_site_occupancy
  Rb  Rb0  1  0.75000000  0.79502012  0.59004024  1
  Rb  Rb1  1  0.75000000  0.41555086  0.83110272  1
  Rb  Rb2  1  0.25000000  0.20497988  0.40995976  1
  Rb  Rb3  1  0.25000000  0.58444914  0.16889728  1
  As  As4  1  0.75000000  0.28492678  0.20925101  1
  As  As5  1  0.25000000  0.07567577  0.79074899  1
  As  As6  1  0.25000000  0.71507322  0.79074899  1
  As  As7  1  0.75000000  0.92432423  0.20925101  1
  Pt  Pt8  1  -0.00000000  -0.00000000  -0.00000000  1
  Pt  Pt9  1  0.50000000  -0.00000000  -0.00000000  1
