# generated using pymatgen
data_Hf9GeMo4
_symmetry_space_group_name_H-M   'P 1'
_cell_length_a   8.64622752
_cell_length_b   8.64623102
_cell_length_c   8.65674014
_cell_angle_alpha   89.99999885
_cell_angle_beta   90.00000506
_cell_angle_gamma   119.99999448
_symmetry_Int_Tables_number   1
_chemical_formula_structural   Hf9GeMo4
_chemical_formula_sum   'Hf18 Ge2 Mo8'
_cell_volume   560.45213966
_cell_formula_units_Z   2
loop_
 _symmetry_equiv_pos_site_id
 _symmetry_equiv_pos_as_xyz
  1  'x, y, z'
loop_
 _atom_site_type_symbol
 _atom_site_label
 _atom_site_symmetry_multiplicity
 _atom_site_fract_x
 _atom_site_fract_y
 _atom_site_fract_z
 _atom_site_occupancy
  Hf  Hf0  1  0.53912363  0.07824832  0.25000269  1
  Hf  Hf1  1  0.46088562  0.92177019  0.74999741  1
  Hf  Hf2  1  0.92175122  0.46087595  0.25000261  1
  Hf  Hf3  1  0.07823040  0.53911506  0.74999749  1
  Hf  Hf4  1  0.53912350  0.46087580  0.25000276  1
  Hf  Hf5  1  0.46088563  0.53911499  0.74999739  1
  Hf  Hf6  1  0.19679384  0.39358535  0.04387224  1
  Hf  Hf7  1  0.80319392  0.60639008  0.95616936  1
  Hf  Hf8  1  0.60641467  0.80320692  0.04387203  1
  Hf  Hf9  1  0.80319464  0.60639110  0.54382740  1
  Hf  Hf10  1  0.39360980  0.19680518  0.95616932  1
  Hf  Hf11  1  0.19679327  0.39358452  0.45613150  1
  Hf  Hf12  1  0.19679348  0.80320787  0.04387199  1
  Hf  Hf13  1  0.39360869  0.19680484  0.54382751  1
  Hf  Hf14  1  0.80319448  0.19680423  0.95616940  1
  Hf  Hf15  1  0.60641565  0.80320738  0.45613147  1
  Hf  Hf16  1  0.80319481  0.19680358  0.54382735  1
  Hf  Hf17  1  0.19679292  0.80320856  0.45613139  1
  Ge  Ge18  1  0.33333316  0.66666687  0.25000027  1
  Ge  Ge19  1  0.66666715  0.33333335  0.74999998  1
  Mo  Mo20  1  0.00000007  -0.00000011  -0.00000302  1
  Mo  Mo21  1  -0.00000001  -0.00000003  0.50000313  1
  Mo  Mo22  1  0.89013023  0.78026135  0.25000808  1
  Mo  Mo23  1  0.10986125  0.21972121  0.74999204  1
  Mo  Mo24  1  0.21973946  0.10986987  0.25000808  1
  Mo  Mo25  1  0.78027835  0.89013878  0.74999205  1
  Mo  Mo26  1  0.89013034  0.10986886  0.25000813  1
  Mo  Mo27  1  0.10986083  0.89013994  0.74999196  1
