# generated using pymatgen
data_RbAg3Se2
_symmetry_space_group_name_H-M   'P 1'
_cell_length_a   4.39589355
_cell_length_b   8.60401972
_cell_length_c   8.99789529
_cell_angle_alpha   112.78455539
_cell_angle_beta   90.00000000
_cell_angle_gamma   104.80058810
_symmetry_Int_Tables_number   1
_chemical_formula_structural   RbAg3Se2
_chemical_formula_sum   'Rb2 Ag6 Se4'
_cell_volume   301.48086761
_cell_formula_units_Z   2
loop_
 _symmetry_equiv_pos_site_id
 _symmetry_equiv_pos_as_xyz
  1  'x, y, z'
loop_
 _atom_site_type_symbol
 _atom_site_label
 _atom_site_symmetry_multiplicity
 _atom_site_fract_x
 _atom_site_fract_y
 _atom_site_fract_z
 _atom_site_occupancy
  Rb  Rb0  1  0.86394157  0.72788313  0.95122409  1
  Rb  Rb1  1  0.13605843  0.27211687  0.04877591  1
  Ag  Ag2  1  0.31157771  0.62315643  0.56221369  1
  Ag  Ag3  1  0.94222637  0.88445273  0.59591004  1
  Ag  Ag4  1  0.68842229  0.37684357  0.43778631  1
  Ag  Ag5  1  0.41000430  0.82000761  0.35889159  1
  Ag  Ag6  1  0.58999570  0.17999239  0.64110841  1
  Ag  Ag7  1  0.05777363  0.11554727  0.40408996  1
  Se  Se8  1  0.48023888  0.96047676  0.78197327  1
  Se  Se9  1  0.19857146  0.39714292  0.69819810  1
  Se  Se10  1  0.80142854  0.60285708  0.30180190  1
  Se  Se11  1  0.51976112  0.03952324  0.21802673  1
