# generated using pymatgen
data_Y(PdO2)2
_symmetry_space_group_name_H-M   'P 1'
_cell_length_a   5.74612443
_cell_length_b   5.74612403
_cell_length_c   6.44528994
_cell_angle_alpha   116.47206268
_cell_angle_beta   116.47207343
_cell_angle_gamma   90.00000634
_symmetry_Int_Tables_number   1
_chemical_formula_structural   Y(PdO2)2
_chemical_formula_sum   'Y2 Pd4 O8'
_cell_volume   165.19795058
_cell_formula_units_Z   2
loop_
 _symmetry_equiv_pos_site_id
 _symmetry_equiv_pos_as_xyz
  1  'x, y, z'
loop_
 _atom_site_type_symbol
 _atom_site_label
 _atom_site_symmetry_multiplicity
 _atom_site_fract_x
 _atom_site_fract_y
 _atom_site_fract_z
 _atom_site_occupancy
  Y  Y0  1  0.12500000  0.37500000  0.25000000  1
  Y  Y1  1  0.87500000  0.62500000  0.75000000  1
  Pd  Pd2  1  0.50000000  0.00000000  0.50000000  1
  Pd  Pd3  1  0.50000000  0.50000000  -0.00000000  1
  Pd  Pd4  1  0.00000000  0.00000000  0.50000000  1
  Pd  Pd5  1  0.50000000  0.00000000  -0.00000000  1
  O  O6  1  0.83309780  0.61707222  0.35444576  1
  O  O7  1  0.73737454  0.33309780  0.85444576  1
  O  O8  1  0.11707222  0.02134796  0.85444576  1
  O  O9  1  0.52134796  0.23737454  0.35444576  1
  O  O10  1  0.16690220  0.38292778  0.64555424  1
  O  O11  1  0.26262546  0.66690220  0.14555424  1
  O  O12  1  0.47865204  0.76262546  0.64555424  1
  O  O13  1  0.88292778  0.97865204  0.14555424  1
