# generated using pymatgen
data_HoSnPd
_symmetry_space_group_name_H-M   'P 1'
_cell_length_a   4.60242227
_cell_length_b   7.15362200
_cell_length_c   7.92958571
_cell_angle_alpha   90.00000000
_cell_angle_beta   90.00000000
_cell_angle_gamma   90.00000000
_symmetry_Int_Tables_number   1
_chemical_formula_structural   HoSnPd
_chemical_formula_sum   'Ho4 Sn4 Pd4'
_cell_volume   261.07359431
_cell_formula_units_Z   4
loop_
 _symmetry_equiv_pos_site_id
 _symmetry_equiv_pos_as_xyz
  1  'x, y, z'
loop_
 _atom_site_type_symbol
 _atom_site_label
 _atom_site_symmetry_multiplicity
 _atom_site_fract_x
 _atom_site_fract_y
 _atom_site_fract_z
 _atom_site_occupancy
  Ho  Ho0  1  0.25000000  0.50802074  0.79306533  1
  Ho  Ho1  1  0.75000000  0.49197926  0.20693467  1
  Ho  Ho2  1  0.25000000  0.00802074  0.70693467  1
  Ho  Ho3  1  0.75000000  0.99197926  0.29306533  1
  Sn  Sn4  1  0.25000000  0.69547544  0.41211750  1
  Sn  Sn5  1  0.75000000  0.80452456  0.91211750  1
  Sn  Sn6  1  0.25000000  0.19547544  0.08788250  1
  Sn  Sn7  1  0.75000000  0.30452456  0.58788250  1
  Pd  Pd8  1  0.75000000  0.20497266  0.91664130  1
  Pd  Pd9  1  0.25000000  0.29502734  0.41664130  1
  Pd  Pd10  1  0.75000000  0.70497266  0.58335870  1
  Pd  Pd11  1  0.25000000  0.79502734  0.08335870  1
