# generated using pymatgen
data_Eu2Ge
_symmetry_space_group_name_H-M   'P 1'
_cell_length_a   4.97731362
_cell_length_b   7.72125521
_cell_length_c   9.40728309
_cell_angle_alpha   90.00000000
_cell_angle_beta   90.00000000
_cell_angle_gamma   90.00000000
_symmetry_Int_Tables_number   1
_chemical_formula_structural   Eu2Ge
_chemical_formula_sum   'Eu8 Ge4'
_cell_volume   361.53231919
_cell_formula_units_Z   4
loop_
 _symmetry_equiv_pos_site_id
 _symmetry_equiv_pos_as_xyz
  1  'x, y, z'
loop_
 _atom_site_type_symbol
 _atom_site_label
 _atom_site_symmetry_multiplicity
 _atom_site_fract_x
 _atom_site_fract_y
 _atom_site_fract_z
 _atom_site_occupancy
  Eu  Eu0  1  0.75000000  0.47824944  0.17971554  1
  Eu  Eu1  1  0.75000000  0.97824944  0.32028446  1
  Eu  Eu2  1  0.25000000  0.52175056  0.82028446  1
  Eu  Eu3  1  0.25000000  0.02175056  0.67971554  1
  Eu  Eu4  1  0.75000000  0.34583565  0.57780606  1
  Eu  Eu5  1  0.75000000  0.84583565  0.92219394  1
  Eu  Eu6  1  0.25000000  0.65416435  0.42219394  1
  Eu  Eu7  1  0.25000000  0.15416435  0.07780606  1
  Ge  Ge8  1  0.75000000  0.25143841  0.89498086  1
  Ge  Ge9  1  0.75000000  0.75143841  0.60501914  1
  Ge  Ge10  1  0.25000000  0.74856159  0.10501914  1
  Ge  Ge11  1  0.25000000  0.24856159  0.39498086  1
