# generated using pymatgen
data_Yb4Pt3Au
_symmetry_space_group_name_H-M   'P 1'
_cell_length_a   4.47278471
_cell_length_b   5.48149569
_cell_length_c   6.90193779
_cell_angle_alpha   89.63370410
_cell_angle_beta   90.00000000
_cell_angle_gamma   90.00000000
_symmetry_Int_Tables_number   1
_chemical_formula_structural   Yb4Pt3Au
_chemical_formula_sum   'Yb4 Pt3 Au1'
_cell_volume   169.21514784
_cell_formula_units_Z   1
loop_
 _symmetry_equiv_pos_site_id
 _symmetry_equiv_pos_as_xyz
  1  'x, y, z'
loop_
 _atom_site_type_symbol
 _atom_site_label
 _atom_site_symmetry_multiplicity
 _atom_site_fract_x
 _atom_site_fract_y
 _atom_site_fract_z
 _atom_site_occupancy
  Yb  Yb0  1  0.50000000  0.64650988  0.68610008  1
  Yb  Yb1  1  0.50000000  0.85192674  0.18020718  1
  Yb  Yb2  1  0.00000000  0.36230709  0.30997418  1
  Yb  Yb3  1  0.00000000  0.14171152  0.82582650  1
  Pt  Pt4  1  0.50000000  0.33954265  0.04221951  1
  Pt  Pt5  1  0.00000000  0.84361506  0.45970320  1
  Pt  Pt6  1  0.00000000  0.65737910  0.95461659  1
  Au  Au7  1  0.50000000  0.15700796  0.54135276  1
