# generated using pymatgen
data_CeAsRh
_symmetry_space_group_name_H-M   'P 1'
_cell_length_a   4.40883217
_cell_length_b   7.17565468
_cell_length_c   7.64564427
_cell_angle_alpha   89.99027056
_cell_angle_beta   90.00000000
_cell_angle_gamma   90.00000000
_symmetry_Int_Tables_number   1
_chemical_formula_structural   CeAsRh
_chemical_formula_sum   'Ce4 As4 Rh4'
_cell_volume   241.87956484
_cell_formula_units_Z   4
loop_
 _symmetry_equiv_pos_site_id
 _symmetry_equiv_pos_as_xyz
  1  'x, y, z'
loop_
 _atom_site_type_symbol
 _atom_site_label
 _atom_site_symmetry_multiplicity
 _atom_site_fract_x
 _atom_site_fract_y
 _atom_site_fract_z
 _atom_site_occupancy
  Ce  Ce0  1  0.25000000  0.76806503  0.50906597  1
  Ce  Ce1  1  0.75000000  0.23193497  0.49093403  1
  Ce  Ce2  1  0.75000000  0.26795396  0.99085270  1
  Ce  Ce3  1  0.25000000  0.73204604  0.00914730  1
  As  As4  1  0.25000000  0.40633483  0.72086301  1
  As  As5  1  0.75000000  0.59366517  0.27913699  1
  As  As6  1  0.75000000  0.90612785  0.77940635  1
  As  As7  1  0.25000000  0.09387215  0.22059365  1
  Rh  Rh8  1  0.25000000  0.44002362  0.24568064  1
  Rh  Rh9  1  0.75000000  0.55997638  0.75431936  1
  Rh  Rh10  1  0.75000000  0.94013705  0.25506177  1
  Rh  Rh11  1  0.25000000  0.05986295  0.74493823  1
