# generated using pymatgen
data_SmZnRh
_symmetry_space_group_name_H-M   'P 1'
_cell_length_a   4.05603426
_cell_length_b   7.01668109
_cell_length_c   8.15538133
_cell_angle_alpha   90.00000000
_cell_angle_beta   90.00000000
_cell_angle_gamma   90.00000000
_symmetry_Int_Tables_number   1
_chemical_formula_structural   SmZnRh
_chemical_formula_sum   'Sm4 Zn4 Rh4'
_cell_volume   232.10132808
_cell_formula_units_Z   4
loop_
 _symmetry_equiv_pos_site_id
 _symmetry_equiv_pos_as_xyz
  1  'x, y, z'
loop_
 _atom_site_type_symbol
 _atom_site_label
 _atom_site_symmetry_multiplicity
 _atom_site_fract_x
 _atom_site_fract_y
 _atom_site_fract_z
 _atom_site_occupancy
  Sm  Sm0  1  0.25000000  0.53848655  0.81409065  1
  Sm  Sm1  1  0.75000000  0.46151345  0.18590935  1
  Sm  Sm2  1  0.25000000  0.03848655  0.68590935  1
  Sm  Sm3  1  0.75000000  0.96151345  0.31409065  1
  Zn  Zn4  1  0.25000000  0.13555497  0.06246902  1
  Zn  Zn5  1  0.75000000  0.86444503  0.93753098  1
  Zn  Zn6  1  0.25000000  0.63555497  0.43753098  1
  Zn  Zn7  1  0.75000000  0.36444503  0.56246902  1
  Rh  Rh8  1  0.75000000  0.74174108  0.62151097  1
  Rh  Rh9  1  0.25000000  0.25825892  0.37848903  1
  Rh  Rh10  1  0.75000000  0.24174108  0.87848903  1
  Rh  Rh11  1  0.25000000  0.75825892  0.12151097  1
