# generated using pymatgen
data_PrPS
_symmetry_space_group_name_H-M   'P 1'
_cell_length_a   5.56011869
_cell_length_b   5.63357068
_cell_length_c   17.29462311
_cell_angle_alpha   90.00000000
_cell_angle_beta   90.00000000
_cell_angle_gamma   90.00000000
_symmetry_Int_Tables_number   1
_chemical_formula_structural   PrPS
_chemical_formula_sum   'Pr8 P8 S8'
_cell_volume   541.72504213
_cell_formula_units_Z   8
loop_
 _symmetry_equiv_pos_site_id
 _symmetry_equiv_pos_as_xyz
  1  'x, y, z'
loop_
 _atom_site_type_symbol
 _atom_site_label
 _atom_site_symmetry_multiplicity
 _atom_site_fract_x
 _atom_site_fract_y
 _atom_site_fract_z
 _atom_site_occupancy
  Pr  Pr0  1  0.25000000  0.48286998  0.36263394  1
  Pr  Pr1  1  0.25000000  0.98286998  0.13736606  1
  Pr  Pr2  1  0.75000000  0.51713002  0.63736606  1
  Pr  Pr3  1  0.75000000  0.01713002  0.86263394  1
  Pr  Pr4  1  0.25000000  0.01705117  0.64832236  1
  Pr  Pr5  1  0.25000000  0.51705117  0.85167764  1
  Pr  Pr6  1  0.75000000  0.98294883  0.35167764  1
  Pr  Pr7  1  0.75000000  0.48294883  0.14832236  1
  P  P8  1  0.04728083  0.30803553  0.99719621  1
  P  P9  1  0.45271917  0.80803553  0.50280379  1
  P  P10  1  0.54728083  0.69196447  0.00280379  1
  P  P11  1  0.95271917  0.19196447  0.49719621  1
  P  P12  1  0.95271917  0.69196447  0.00280379  1
  P  P13  1  0.54728083  0.19196447  0.49719621  1
  P  P14  1  0.45271917  0.30803553  0.99719621  1
  P  P15  1  0.04728083  0.80803553  0.50280379  1
  S  S16  1  0.25000000  0.48448147  0.18931082  1
  S  S17  1  0.25000000  0.98448147  0.31068918  1
  S  S18  1  0.75000000  0.51551853  0.81068918  1
  S  S19  1  0.75000000  0.01551853  0.68931082  1
  S  S20  1  0.25000000  0.01271188  0.81768492  1
  S  S21  1  0.25000000  0.51271188  0.68231508  1
  S  S22  1  0.75000000  0.98728812  0.18231508  1
  S  S23  1  0.75000000  0.48728812  0.31768492  1
