# generated using pymatgen
data_TmGePt
_symmetry_space_group_name_H-M   'P 1'
_cell_length_a   4.32316748
_cell_length_b   6.90625573
_cell_length_c   7.52400516
_cell_angle_alpha   90.00000000
_cell_angle_beta   90.00000000
_cell_angle_gamma   90.00000000
_symmetry_Int_Tables_number   1
_chemical_formula_structural   TmGePt
_chemical_formula_sum   'Tm4 Ge4 Pt4'
_cell_volume   224.64347102
_cell_formula_units_Z   4
loop_
 _symmetry_equiv_pos_site_id
 _symmetry_equiv_pos_as_xyz
  1  'x, y, z'
loop_
 _atom_site_type_symbol
 _atom_site_label
 _atom_site_symmetry_multiplicity
 _atom_site_fract_x
 _atom_site_fract_y
 _atom_site_fract_z
 _atom_site_occupancy
  Tm  Tm0  1  0.25000000  0.99711678  0.29531601  1
  Tm  Tm1  1  0.25000000  0.49711678  0.20468399  1
  Tm  Tm2  1  0.75000000  0.00288322  0.70468399  1
  Tm  Tm3  1  0.75000000  0.50288322  0.79531601  1
  Ge  Ge4  1  0.25000000  0.30932589  0.58873983  1
  Ge  Ge5  1  0.25000000  0.80932589  0.91126017  1
  Ge  Ge6  1  0.75000000  0.69067411  0.41126017  1
  Ge  Ge7  1  0.75000000  0.19067411  0.08873983  1
  Pt  Pt8  1  0.25000000  0.20628385  0.91619939  1
  Pt  Pt9  1  0.25000000  0.70628385  0.58380061  1
  Pt  Pt10  1  0.75000000  0.79371615  0.08380061  1
  Pt  Pt11  1  0.75000000  0.29371615  0.41619939  1
