# generated using pymatgen
data_TmGeIr
_symmetry_space_group_name_H-M   'P 1'
_cell_length_a   4.24224076
_cell_length_b   6.75480835
_cell_length_c   7.55572032
_cell_angle_alpha   90.00032779
_cell_angle_beta   90.00000000
_cell_angle_gamma   90.00000000
_symmetry_Int_Tables_number   1
_chemical_formula_structural   TmGeIr
_chemical_formula_sum   'Tm4 Ge4 Ir4'
_cell_volume   216.51311974
_cell_formula_units_Z   4
loop_
 _symmetry_equiv_pos_site_id
 _symmetry_equiv_pos_as_xyz
  1  'x, y, z'
loop_
 _atom_site_type_symbol
 _atom_site_label
 _atom_site_symmetry_multiplicity
 _atom_site_fract_x
 _atom_site_fract_y
 _atom_site_fract_z
 _atom_site_occupancy
  Tm  Tm0  1  0.25000000  0.50742133  0.69249379  1
  Tm  Tm1  1  0.25000000  0.00742076  0.80750638  1
  Tm  Tm2  1  0.75000000  0.49257867  0.30750621  1
  Tm  Tm3  1  0.75000000  0.99257924  0.19249362  1
  Ge  Ge4  1  0.25000000  0.78961160  0.38716329  1
  Ge  Ge5  1  0.25000000  0.28961032  0.11283620  1
  Ge  Ge6  1  0.75000000  0.21038840  0.61283671  1
  Ge  Ge7  1  0.75000000  0.71038968  0.88716380  1
  Ir  Ir8  1  0.25000000  0.16039947  0.43616344  1
  Ir  Ir9  1  0.25000000  0.66039852  0.06383541  1
  Ir  Ir10  1  0.75000000  0.83960053  0.56383656  1
  Ir  Ir11  1  0.75000000  0.33960148  0.93616459  1
