# generated using pymatgen
data_Ho2ReB6
_symmetry_space_group_name_H-M   'P 1'
_cell_length_a   3.66547355
_cell_length_b   9.13805392
_cell_length_c   11.50769734
_cell_angle_alpha   90.00000000
_cell_angle_beta   90.00000000
_cell_angle_gamma   90.00000000
_symmetry_Int_Tables_number   1
_chemical_formula_structural   Ho2ReB6
_chemical_formula_sum   'Ho8 Re4 B24'
_cell_volume   385.45371651
_cell_formula_units_Z   4
loop_
 _symmetry_equiv_pos_site_id
 _symmetry_equiv_pos_as_xyz
  1  'x, y, z'
loop_
 _atom_site_type_symbol
 _atom_site_label
 _atom_site_symmetry_multiplicity
 _atom_site_fract_x
 _atom_site_fract_y
 _atom_site_fract_z
 _atom_site_occupancy
  Ho  Ho0  1  -0.00000000  0.32376855  0.41402023  1
  Ho  Ho1  1  -0.00000000  0.67623145  0.58597977  1
  Ho  Ho2  1  0.00000000  0.82376855  0.08597977  1
  Ho  Ho3  1  0.00000000  0.17623145  0.91402023  1
  Ho  Ho4  1  0.00000000  0.94274252  0.36968897  1
  Ho  Ho5  1  -0.00000000  0.05725748  0.63031103  1
  Ho  Ho6  1  0.00000000  0.44274252  0.13031103  1
  Ho  Ho7  1  -0.00000000  0.55725748  0.86968897  1
  Re  Re8  1  -0.00000000  0.63845338  0.32074262  1
  Re  Re9  1  -0.00000000  0.36154662  0.67925738  1
  Re  Re10  1  0.00000000  0.13845338  0.17925738  1
  Re  Re11  1  -0.00000000  0.86154662  0.82074262  1
  B  B12  1  0.50000000  0.55322150  0.43296080  1
  B  B13  1  0.50000000  0.44677850  0.56703920  1
  B  B14  1  0.50000000  0.05322150  0.06703920  1
  B  B15  1  0.50000000  0.94677850  0.93296080  1
  B  B16  1  0.50000000  0.74911735  0.41860072  1
  B  B17  1  0.50000000  0.25088265  0.58139928  1
  B  B18  1  0.50000000  0.24911735  0.08139928  1
  B  B19  1  0.50000000  0.75088265  0.91860072  1
  B  B20  1  0.50000000  0.79183541  0.26504661  1
  B  B21  1  0.50000000  0.20816459  0.73495339  1
  B  B22  1  0.50000000  0.29183541  0.23495339  1
  B  B23  1  0.50000000  0.70816459  0.76504661  1
  B  B24  1  0.50000000  0.63073502  0.18554698  1
  B  B25  1  0.50000000  0.36926498  0.81445302  1
  B  B26  1  0.50000000  0.13073502  0.31445302  1
  B  B27  1  0.50000000  0.86926498  0.68554698  1
  B  B28  1  0.50000000  0.98220172  0.21178046  1
  B  B29  1  0.50000000  0.01779828  0.78821954  1
  B  B30  1  0.50000000  0.48220172  0.28821954  1
  B  B31  1  0.50000000  0.51779828  0.71178046  1
  B  B32  1  0.50000000  0.59981264  0.02791404  1
  B  B33  1  0.50000000  0.40018736  0.97208596  1
  B  B34  1  0.50000000  0.09981264  0.47208596  1
  B  B35  1  0.50000000  0.90018736  0.52791404  1
