# generated using pymatgen
data_Sm2Mo2C3
_symmetry_space_group_name_H-M   'P 1'
_cell_length_a   3.45898021
_cell_length_b   5.80690437
_cell_length_c   5.93114948
_cell_angle_alpha   105.44340915
_cell_angle_beta   106.95342914
_cell_angle_gamma   90.00000359
_symmetry_Int_Tables_number   1
_chemical_formula_structural   Sm2Mo2C3
_chemical_formula_sum   'Sm2 Mo2 C3'
_cell_volume   109.45091015
_cell_formula_units_Z   1
loop_
 _symmetry_equiv_pos_site_id
 _symmetry_equiv_pos_as_xyz
  1  'x, y, z'
loop_
 _atom_site_type_symbol
 _atom_site_label
 _atom_site_symmetry_multiplicity
 _atom_site_fract_x
 _atom_site_fract_y
 _atom_site_fract_z
 _atom_site_occupancy
  Sm  Sm0  1  0.38958061  0.17565447  0.77916122  1
  Sm  Sm1  1  0.61041939  0.82434553  0.22083878  1
  Mo  Mo2  1  0.15271749  0.38393259  0.30543198  1
  Mo  Mo3  1  0.84728251  0.61606741  0.69456802  1
  C  C4  1  0.00000000  0.50000000  0.00000000  1
  C  C5  1  0.27620476  0.73238974  0.55240751  1
  C  C6  1  0.72379524  0.26761026  0.44759249  1
