# generated using pymatgen
data_Zn(NiO2)2
_symmetry_space_group_name_H-M   'P 1'
_cell_length_a   5.62862077
_cell_length_b   5.88821498
_cell_length_c   5.62875115
_cell_angle_alpha   61.43564079
_cell_angle_beta   90.00562176
_cell_angle_gamma   118.56359498
_symmetry_Int_Tables_number   1
_chemical_formula_structural   Zn(NiO2)2
_chemical_formula_sum   'Zn2 Ni4 O8'
_cell_volume   137.44262861
_cell_formula_units_Z   2
loop_
 _symmetry_equiv_pos_site_id
 _symmetry_equiv_pos_as_xyz
  1  'x, y, z'
loop_
 _atom_site_type_symbol
 _atom_site_label
 _atom_site_symmetry_multiplicity
 _atom_site_fract_x
 _atom_site_fract_y
 _atom_site_fract_z
 _atom_site_occupancy
  Zn  Zn0  1  0.62518179  0.75000783  0.62516923  1
  Zn  Zn1  1  0.37481754  0.24999250  0.37483161  1
  Ni  Ni2  1  0.49999816  0.00000302  0.00000345  1
  Ni  Ni3  1  -0.00000820  -0.00000181  0.00000161  1
  Ni  Ni4  1  -0.00001043  0.50000144  0.50000016  1
  Ni  Ni5  1  -0.00000810  0.49999948  0.00000613  1
  O  O6  1  0.78769393  0.52462132  0.23767851  1
  O  O7  1  0.23766841  0.97534867  0.78765844  1
  O  O8  1  0.23761009  0.97516560  0.23700313  1
  O  O9  1  0.21232239  0.47538018  0.76232046  1
  O  O10  1  0.76304281  0.47516227  0.76238345  1
  O  O11  1  0.76233570  0.02464965  0.21233660  1
  O  O12  1  0.23696367  0.52483417  0.23761788  1
  O  O13  1  0.76239324  0.02483570  0.76298934  1
