# generated using pymatgen
data_BaCaSn
_symmetry_space_group_name_H-M   'P 1'
_cell_length_a   5.31984239
_cell_length_b   8.92568558
_cell_length_c   9.71541841
_cell_angle_alpha   90.00000000
_cell_angle_beta   90.00000000
_cell_angle_gamma   90.00000000
_symmetry_Int_Tables_number   1
_chemical_formula_structural   BaCaSn
_chemical_formula_sum   'Ba4 Ca4 Sn4'
_cell_volume   461.31954900
_cell_formula_units_Z   4
loop_
 _symmetry_equiv_pos_site_id
 _symmetry_equiv_pos_as_xyz
  1  'x, y, z'
loop_
 _atom_site_type_symbol
 _atom_site_label
 _atom_site_symmetry_multiplicity
 _atom_site_fract_x
 _atom_site_fract_y
 _atom_site_fract_z
 _atom_site_occupancy
  Ba  Ba0  1  0.25000000  0.02150276  0.81901995  1
  Ba  Ba1  1  0.75000000  0.97849724  0.18098005  1
  Ba  Ba2  1  0.25000000  0.52150276  0.68098005  1
  Ba  Ba3  1  0.75000000  0.47849724  0.31901995  1
  Ca  Ca4  1  0.75000000  0.85686713  0.57157839  1
  Ca  Ca5  1  0.25000000  0.64313287  0.07157839  1
  Ca  Ca6  1  0.75000000  0.35686713  0.92842161  1
  Ca  Ca7  1  0.25000000  0.14313287  0.42842161  1
  Sn  Sn8  1  0.25000000  0.27664576  0.10829536  1
  Sn  Sn9  1  0.75000000  0.22335424  0.60829536  1
  Sn  Sn10  1  0.25000000  0.77664576  0.39170464  1
  Sn  Sn11  1  0.75000000  0.72335424  0.89170464  1
