# generated using pymatgen
data_DyIr2
_symmetry_space_group_name_H-M   'P 1'
_cell_length_a   5.32840705
_cell_length_b   5.32840745
_cell_length_c   5.32840728
_cell_angle_alpha   60.00000103
_cell_angle_beta   59.99999857
_cell_angle_gamma   60.00000516
_symmetry_Int_Tables_number   1
_chemical_formula_structural   DyIr2
_chemical_formula_sum   'Dy2 Ir4'
_cell_volume   106.97375764
_cell_formula_units_Z   2
loop_
 _symmetry_equiv_pos_site_id
 _symmetry_equiv_pos_as_xyz
  1  'x, y, z'
loop_
 _atom_site_type_symbol
 _atom_site_label
 _atom_site_symmetry_multiplicity
 _atom_site_fract_x
 _atom_site_fract_y
 _atom_site_fract_z
 _atom_site_occupancy
  Dy  Dy0  1  0.87500000  0.87500000  0.87500000  1
  Dy  Dy1  1  0.12500000  0.12500000  0.12500000  1
  Ir  Ir2  1  0.50000000  0.50000000  0.50000000  1
  Ir  Ir3  1  0.50000000  0.50000000  0.00000000  1
  Ir  Ir4  1  -0.00000000  0.50000000  0.50000000  1
  Ir  Ir5  1  0.50000000  -0.00000000  0.50000000  1
