# generated using pymatgen
data_Hf2Al3Au
_symmetry_space_group_name_H-M   'P 1'
_cell_length_a   5.23007427
_cell_length_b   5.23007427
_cell_length_c   5.23007417
_cell_angle_alpha   60.81335160
_cell_angle_beta   60.81335160
_cell_angle_gamma   60.81333126
_symmetry_Int_Tables_number   1
_chemical_formula_structural   Hf2Al3Au
_chemical_formula_sum   'Hf2 Al3 Au1'
_cell_volume   103.01556687
_cell_formula_units_Z   1
loop_
 _symmetry_equiv_pos_site_id
 _symmetry_equiv_pos_as_xyz
  1  'x, y, z'
loop_
 _atom_site_type_symbol
 _atom_site_label
 _atom_site_symmetry_multiplicity
 _atom_site_fract_x
 _atom_site_fract_y
 _atom_site_fract_z
 _atom_site_occupancy
  Hf  Hf0  1  0.37677872  0.37677872  0.37677872  1
  Hf  Hf1  1  0.62322128  0.62322128  0.62322128  1
  Al  Al2  1  0.50000000  -0.00000000  0.00000000  1
  Al  Al3  1  0.00000000  -0.00000000  0.50000000  1
  Al  Al4  1  0.00000000  0.50000000  -0.00000000  1
  Au  Au5  1  0.00000000  -0.00000000  -0.00000000  1
