# generated using pymatgen
data_Sr(Ag2Sb)2
_symmetry_space_group_name_H-M   'P 1'
_cell_length_a   8.87373285
_cell_length_b   8.87373285
_cell_length_c   8.87373343
_cell_angle_alpha   31.05618289
_cell_angle_beta   31.05618289
_cell_angle_gamma   31.05618830
_symmetry_Int_Tables_number   1
_chemical_formula_structural   Sr(Ag2Sb)2
_chemical_formula_sum   'Sr1 Ag4 Sb2'
_cell_volume   164.98015646
_cell_formula_units_Z   1
loop_
 _symmetry_equiv_pos_site_id
 _symmetry_equiv_pos_as_xyz
  1  'x, y, z'
loop_
 _atom_site_type_symbol
 _atom_site_label
 _atom_site_symmetry_multiplicity
 _atom_site_fract_x
 _atom_site_fract_y
 _atom_site_fract_z
 _atom_site_occupancy
  Sr  Sr0  1  0.00000000  0.00000000  -0.00000000  1
  Ag  Ag1  1  0.85711932  0.85711932  0.85711932  1
  Ag  Ag2  1  0.14288068  0.14288068  0.14288068  1
  Ag  Ag3  1  0.56418613  0.56418613  0.56418613  1
  Ag  Ag4  1  0.43581387  0.43581387  0.43581387  1
  Sb  Sb5  1  0.74529350  0.74529350  0.74529350  1
  Sb  Sb6  1  0.25470650  0.25470650  0.25470650  1
