# generated using pymatgen
data_YbSc(BO3)2
_symmetry_space_group_name_H-M   'P 1'
_cell_length_a   5.92878493
_cell_length_b   5.92878493
_cell_length_c   5.92878544
_cell_angle_alpha   48.16066225
_cell_angle_beta   48.16066225
_cell_angle_gamma   48.16065656
_symmetry_Int_Tables_number   1
_chemical_formula_structural   YbSc(BO3)2
_chemical_formula_sum   'Yb1 Sc1 B2 O6'
_cell_volume   106.00891860
_cell_formula_units_Z   1
loop_
 _symmetry_equiv_pos_site_id
 _symmetry_equiv_pos_as_xyz
  1  'x, y, z'
loop_
 _atom_site_type_symbol
 _atom_site_label
 _atom_site_symmetry_multiplicity
 _atom_site_fract_x
 _atom_site_fract_y
 _atom_site_fract_z
 _atom_site_occupancy
  Yb  Yb0  1  0.00000000  0.00000000  0.00000000  1
  Sc  Sc1  1  0.50000000  0.50000000  0.50000000  1
  B  B2  1  0.75319535  0.75319535  0.75319535  1
  B  B3  1  0.24680465  0.24680465  0.24680465  1
  O  O4  1  0.47317221  0.74049275  0.04295327  1
  O  O5  1  0.74049275  0.04295327  0.47317221  1
  O  O6  1  0.04295327  0.47317221  0.74049275  1
  O  O7  1  0.25950725  0.95704673  0.52682779  1
  O  O8  1  0.95704673  0.52682779  0.25950725  1
  O  O9  1  0.52682779  0.25950725  0.95704673  1
