# generated using pymatgen
data_Ce(ZnAu2)2
_symmetry_space_group_name_H-M   'P 1'
_cell_length_a   5.63185124
_cell_length_b   5.63185124
_cell_length_c   5.63185124
_cell_angle_alpha   103.01570506
_cell_angle_beta   103.01570506
_cell_angle_gamma   123.33708946
_symmetry_Int_Tables_number   1
_chemical_formula_structural   Ce(ZnAu2)2
_chemical_formula_sum   'Ce1 Zn2 Au4'
_cell_volume   131.36045416
_cell_formula_units_Z   1
loop_
 _symmetry_equiv_pos_site_id
 _symmetry_equiv_pos_as_xyz
  1  'x, y, z'
loop_
 _atom_site_type_symbol
 _atom_site_label
 _atom_site_symmetry_multiplicity
 _atom_site_fract_x
 _atom_site_fract_y
 _atom_site_fract_z
 _atom_site_occupancy
  Ce  Ce0  1  0.00000000  -0.00000000  0.00000000  1
  Zn  Zn1  1  0.25000000  0.75000000  0.50000000  1
  Zn  Zn2  1  0.75000000  0.25000000  0.50000000  1
  Au  Au3  1  0.30157697  0.30157697  0.60315494  1
  Au  Au4  1  0.69842303  0.69842303  0.39684506  1
  Au  Au5  1  0.69842303  0.30157697  0.00000000  1
  Au  Au6  1  0.30157697  0.69842303  -0.00000000  1
