# generated using pymatgen
data_Hf3Sn
_symmetry_space_group_name_H-M   'P 1'
_cell_length_a   6.24216421
_cell_length_b   6.24216421
_cell_length_c   5.07085203
_cell_angle_alpha   90.00000000
_cell_angle_beta   90.00000000
_cell_angle_gamma   120.00000757
_symmetry_Int_Tables_number   1
_chemical_formula_structural   Hf3Sn
_chemical_formula_sum   'Hf6 Sn2'
_cell_volume   171.11257053
_cell_formula_units_Z   2
loop_
 _symmetry_equiv_pos_site_id
 _symmetry_equiv_pos_as_xyz
  1  'x, y, z'
loop_
 _atom_site_type_symbol
 _atom_site_label
 _atom_site_symmetry_multiplicity
 _atom_site_fract_x
 _atom_site_fract_y
 _atom_site_fract_z
 _atom_site_occupancy
  Hf  Hf0  1  0.16644865  0.33289830  0.25000000  1
  Hf  Hf1  1  0.66710170  0.83355135  0.25000000  1
  Hf  Hf2  1  0.16644865  0.83355135  0.25000000  1
  Hf  Hf3  1  0.83355135  0.66710170  0.75000000  1
  Hf  Hf4  1  0.33289830  0.16644865  0.75000000  1
  Hf  Hf5  1  0.83355135  0.16644865  0.75000000  1
  Sn  Sn6  1  0.33333300  0.66666700  0.75000000  1
  Sn  Sn7  1  0.66666700  0.33333300  0.25000000  1
