# generated using pymatgen
data_YErAl4
_symmetry_space_group_name_H-M   'P 1'
_cell_length_a   5.52441099
_cell_length_b   5.52441099
_cell_length_c   5.52441099
_cell_angle_alpha   60.00000000
_cell_angle_beta   60.00000000
_cell_angle_gamma   60.00000000
_symmetry_Int_Tables_number   1
_chemical_formula_structural   YErAl4
_chemical_formula_sum   'Y1 Er1 Al4'
_cell_volume   119.21830498
_cell_formula_units_Z   1
loop_
 _symmetry_equiv_pos_site_id
 _symmetry_equiv_pos_as_xyz
  1  'x, y, z'
loop_
 _atom_site_type_symbol
 _atom_site_label
 _atom_site_symmetry_multiplicity
 _atom_site_fract_x
 _atom_site_fract_y
 _atom_site_fract_z
 _atom_site_occupancy
  Y  Y0  1  -0.00000000  0.00000000  -0.00000000  1
  Er  Er1  1  0.25000000  0.25000000  0.25000000  1
  Al  Al2  1  0.62489793  0.62489793  0.12530420  1
  Al  Al3  1  0.62489793  0.12530420  0.62489793  1
  Al  Al4  1  0.12530420  0.62489793  0.62489793  1
  Al  Al5  1  0.62489793  0.62489793  0.62489793  1
