# generated using pymatgen
data_Rb2SiF6
_symmetry_space_group_name_H-M   'P 1'
_cell_length_a   5.90666375
_cell_length_b   5.90666274
_cell_length_c   5.90666354
_cell_angle_alpha   59.99999551
_cell_angle_beta   60.00000118
_cell_angle_gamma   60.00000156
_symmetry_Int_Tables_number   1
_chemical_formula_structural   Rb2SiF6
_chemical_formula_sum   'Rb2 Si1 F6'
_cell_volume   145.71747991
_cell_formula_units_Z   1
loop_
 _symmetry_equiv_pos_site_id
 _symmetry_equiv_pos_as_xyz
  1  'x, y, z'
loop_
 _atom_site_type_symbol
 _atom_site_label
 _atom_site_symmetry_multiplicity
 _atom_site_fract_x
 _atom_site_fract_y
 _atom_site_fract_z
 _atom_site_occupancy
  Rb  Rb0  1  0.75000000  0.75000000  0.75000000  1
  Rb  Rb1  1  0.25000000  0.25000000  0.25000000  1
  Si  Si2  1  0.00000000  0.00000000  -0.00000000  1
  F  F3  1  0.20377383  0.79622617  0.79622617  1
  F  F4  1  0.20377383  0.79622617  0.20377383  1
  F  F5  1  0.79622617  0.20377383  0.79622617  1
  F  F6  1  0.79622617  0.20377383  0.20377383  1
  F  F7  1  0.79622617  0.79622617  0.20377383  1
  F  F8  1  0.20377383  0.20377383  0.79622617  1
