# generated using pymatgen
data_HfTc2
_symmetry_space_group_name_H-M   'P 1'
_cell_length_a   5.17905300
_cell_length_b   5.17905300
_cell_length_c   8.62864922
_cell_angle_alpha   90.00000000
_cell_angle_beta   90.00000000
_cell_angle_gamma   120.01762441
_symmetry_Int_Tables_number   1
_chemical_formula_structural   HfTc2
_chemical_formula_sum   'Hf4 Tc8'
_cell_volume   200.39966958
_cell_formula_units_Z   4
loop_
 _symmetry_equiv_pos_site_id
 _symmetry_equiv_pos_as_xyz
  1  'x, y, z'
loop_
 _atom_site_type_symbol
 _atom_site_label
 _atom_site_symmetry_multiplicity
 _atom_site_fract_x
 _atom_site_fract_y
 _atom_site_fract_z
 _atom_site_occupancy
  Hf  Hf0  1  0.66662164  0.33337836  0.56286998  1
  Hf  Hf1  1  0.33337836  0.66662164  0.43713002  1
  Hf  Hf2  1  0.33337836  0.66662164  0.06286998  1
  Hf  Hf3  1  0.66662164  0.33337836  0.93713002  1
  Tc  Tc4  1  0.00000000  -0.00000000  0.50000000  1
  Tc  Tc5  1  0.00000000  -0.00000000  0.00000000  1
  Tc  Tc6  1  0.17262193  0.34535421  0.75000000  1
  Tc  Tc7  1  0.17267199  0.82732801  0.75000000  1
  Tc  Tc8  1  0.65464579  0.82737807  0.75000000  1
  Tc  Tc9  1  0.82737807  0.65464579  0.25000000  1
  Tc  Tc10  1  0.82732801  0.17267199  0.25000000  1
  Tc  Tc11  1  0.34535421  0.17262193  0.25000000  1
