# generated using pymatgen
data_PrGa
_symmetry_space_group_name_H-M   'P 1'
_cell_length_a   4.20313167
_cell_length_b   4.52306792
_cell_length_c   6.10385695
_cell_angle_alpha   111.74701035
_cell_angle_beta   90.00000000
_cell_angle_gamma   90.00000000
_symmetry_Int_Tables_number   1
_chemical_formula_structural   PrGa
_chemical_formula_sum   'Pr2 Ga2'
_cell_volume   107.78198205
_cell_formula_units_Z   2
loop_
 _symmetry_equiv_pos_site_id
 _symmetry_equiv_pos_as_xyz
  1  'x, y, z'
loop_
 _atom_site_type_symbol
 _atom_site_label
 _atom_site_symmetry_multiplicity
 _atom_site_fract_x
 _atom_site_fract_y
 _atom_site_fract_z
 _atom_site_occupancy
  Pr  Pr0  1  0.75000000  0.13885496  0.27771193  1
  Pr  Pr1  1  0.25000000  0.86114504  0.72228807  1
  Ga  Ga2  1  0.75000000  0.43114628  0.86229156  1
  Ga  Ga3  1  0.25000000  0.56885372  0.13770844  1
