# generated using pymatgen
data_NpAs2
_symmetry_space_group_name_H-M   'P 1'
_cell_length_a   3.99128148
_cell_length_b   3.99182391
_cell_length_c   8.22978916
_cell_angle_alpha   90.00000000
_cell_angle_beta   90.00000000
_cell_angle_gamma   90.00000000
_symmetry_Int_Tables_number   1
_chemical_formula_structural   NpAs2
_chemical_formula_sum   'Np2 As4'
_cell_volume   131.12105689
_cell_formula_units_Z   2
loop_
 _symmetry_equiv_pos_site_id
 _symmetry_equiv_pos_as_xyz
  1  'x, y, z'
loop_
 _atom_site_type_symbol
 _atom_site_label
 _atom_site_symmetry_multiplicity
 _atom_site_fract_x
 _atom_site_fract_y
 _atom_site_fract_z
 _atom_site_occupancy
  Np  Np0  1  0.75000000  0.75000000  0.71565590  1
  Np  Np1  1  0.25000000  0.25000000  0.28434406  1
  As  As2  1  0.75000000  0.75000000  0.35931830  1
  As  As3  1  0.25000000  0.25000000  0.64063083  1
  As  As4  1  0.25000000  0.75000000  0.00004286  1
  As  As5  1  0.75000000  0.25000000  0.00000806  1
