# generated using pymatgen
data_Sm2Bi
_symmetry_space_group_name_H-M   'P 1'
_cell_length_a   4.57323856
_cell_length_b   4.57323960
_cell_length_c   9.48731994
_cell_angle_alpha   103.94666520
_cell_angle_beta   103.94665873
_cell_angle_gamma   90.00000000
_symmetry_Int_Tables_number   1
_chemical_formula_structural   Sm2Bi
_chemical_formula_sum   'Sm4 Bi2'
_cell_volume   186.54057322
_cell_formula_units_Z   2
loop_
 _symmetry_equiv_pos_site_id
 _symmetry_equiv_pos_as_xyz
  1  'x, y, z'
loop_
 _atom_site_type_symbol
 _atom_site_label
 _atom_site_symmetry_multiplicity
 _atom_site_fract_x
 _atom_site_fract_y
 _atom_site_fract_z
 _atom_site_occupancy
  Sm  Sm0  1  0.32096319  0.32096319  0.64192538  1
  Sm  Sm1  1  0.67903681  0.67903681  0.35807462  1
  Sm  Sm2  1  -0.00000000  0.50000000  -0.00000000  1
  Sm  Sm3  1  0.50000000  -0.00000000  -0.00000000  1
  Bi  Bi4  1  0.13886247  0.13886247  0.27772494  1
  Bi  Bi5  1  0.86113753  0.86113753  0.72227506  1
