# generated using pymatgen
data_EuCdAu
_symmetry_space_group_name_H-M   'P 1'
_cell_length_a   4.42956669
_cell_length_b   7.57390066
_cell_length_c   8.93646777
_cell_angle_alpha   90.00000000
_cell_angle_beta   90.00000000
_cell_angle_gamma   90.00000000
_symmetry_Int_Tables_number   1
_chemical_formula_structural   EuCdAu
_chemical_formula_sum   'Eu4 Cd4 Au4'
_cell_volume   299.81043368
_cell_formula_units_Z   4
loop_
 _symmetry_equiv_pos_site_id
 _symmetry_equiv_pos_as_xyz
  1  'x, y, z'
loop_
 _atom_site_type_symbol
 _atom_site_label
 _atom_site_symmetry_multiplicity
 _atom_site_fract_x
 _atom_site_fract_y
 _atom_site_fract_z
 _atom_site_occupancy
  Eu  Eu0  1  0.75000000  0.45823349  0.18241314  1
  Eu  Eu1  1  0.25000000  0.04174105  0.68248929  1
  Eu  Eu2  1  0.75000000  0.95823349  0.31758686  1
  Eu  Eu3  1  0.25000000  0.54174105  0.81751071  1
  Cd  Cd4  1  0.25000000  0.64128568  0.43936506  1
  Cd  Cd5  1  0.25000000  0.14128568  0.06063494  1
  Cd  Cd6  1  0.75000000  0.35872546  0.56072641  1
  Cd  Cd7  1  0.75000000  0.85872546  0.93927359  1
  Au  Au8  1  0.25000000  0.75418350  0.12758092  1
  Au  Au9  1  0.25000000  0.25418350  0.37241908  1
  Au  Au10  1  0.75000000  0.74583082  0.62762572  1
  Au  Au11  1  0.75000000  0.24583082  0.87237428  1
