# generated using pymatgen
data_Tb4Ga16Co3
_symmetry_space_group_name_H-M   'P 1'
_cell_length_a   5.97483243
_cell_length_b   5.97483243
_cell_length_c   11.00788951
_cell_angle_alpha   90.00000000
_cell_angle_beta   90.00000000
_cell_angle_gamma   90.00000000
_symmetry_Int_Tables_number   1
_chemical_formula_structural   Tb4Ga16Co3
_chemical_formula_sum   'Tb4 Ga16 Co3'
_cell_volume   392.96649287
_cell_formula_units_Z   1
loop_
 _symmetry_equiv_pos_site_id
 _symmetry_equiv_pos_as_xyz
  1  'x, y, z'
loop_
 _atom_site_type_symbol
 _atom_site_label
 _atom_site_symmetry_multiplicity
 _atom_site_fract_x
 _atom_site_fract_y
 _atom_site_fract_z
 _atom_site_occupancy
  Tb  Tb0  1  0.50000000  -0.00000000  0.80463699  1
  Tb  Tb1  1  0.00000000  0.50000000  0.80463699  1
  Tb  Tb2  1  0.50000000  -0.00000000  0.19536301  1
  Tb  Tb3  1  0.00000000  0.50000000  0.19536301  1
  Ga  Ga4  1  0.24945378  0.24945378  0.61459545  1
  Ga  Ga5  1  0.75054622  0.75054622  0.61459545  1
  Ga  Ga6  1  0.75054622  0.24945378  0.61459545  1
  Ga  Ga7  1  0.24945378  0.75054622  0.61459545  1
  Ga  Ga8  1  0.75054622  0.75054622  0.38540455  1
  Ga  Ga9  1  0.24945378  0.24945378  0.38540455  1
  Ga  Ga10  1  0.24945378  0.75054622  0.38540455  1
  Ga  Ga11  1  0.75054622  0.24945378  0.38540455  1
  Ga  Ga12  1  0.28125901  0.28125901  -0.00000000  1
  Ga  Ga13  1  0.71874099  0.71874099  -0.00000000  1
  Ga  Ga14  1  0.71874099  0.28125901  -0.00000000  1
  Ga  Ga15  1  0.28125901  0.71874099  -0.00000000  1
  Ga  Ga16  1  0.50000000  0.50000000  0.80565987  1
  Ga  Ga17  1  0.50000000  0.50000000  0.19434013  1
  Ga  Ga18  1  0.00000000  -0.00000000  0.78102570  1
  Ga  Ga19  1  0.00000000  -0.00000000  0.21897430  1
  Co  Co20  1  0.50000000  -0.00000000  0.50000000  1
  Co  Co21  1  0.00000000  0.50000000  0.50000000  1
  Co  Co22  1  0.00000000  -0.00000000  -0.00000000  1
