# generated using pymatgen
data_Hf6FeSb2
_symmetry_space_group_name_H-M   'P 1'
_cell_length_a   7.70421604
_cell_length_b   7.70421604
_cell_length_c   3.58664776
_cell_angle_alpha   90.00000000
_cell_angle_beta   90.00000000
_cell_angle_gamma   120.00000875
_symmetry_Int_Tables_number   1
_chemical_formula_structural   Hf6FeSb2
_chemical_formula_sum   'Hf6 Fe1 Sb2'
_cell_volume   184.36404407
_cell_formula_units_Z   1
loop_
 _symmetry_equiv_pos_site_id
 _symmetry_equiv_pos_as_xyz
  1  'x, y, z'
loop_
 _atom_site_type_symbol
 _atom_site_label
 _atom_site_symmetry_multiplicity
 _atom_site_fract_x
 _atom_site_fract_y
 _atom_site_fract_z
 _atom_site_occupancy
  Hf  Hf0  1  0.24004008  -0.00000000  0.50000000  1
  Hf  Hf1  1  -0.00000000  0.24004008  0.50000000  1
  Hf  Hf2  1  0.75995992  0.75995992  0.50000000  1
  Hf  Hf3  1  0.60397755  0.00000000  -0.00000000  1
  Hf  Hf4  1  0.00000000  0.60397755  0.00000000  1
  Hf  Hf5  1  0.39602245  0.39602245  -0.00000000  1
  Fe  Fe6  1  -0.00000000  -0.00000000  -0.00000000  1
  Sb  Sb7  1  0.33333300  0.66666700  0.50000000  1
  Sb  Sb8  1  0.66666700  0.33333300  0.50000000  1
