# generated using pymatgen
data_Tm3(CuSn)4
_symmetry_space_group_name_H-M   'P 1'
_cell_length_a   4.40372258
_cell_length_b   6.88322494
_cell_length_c   8.32330360
_cell_angle_alpha   114.42433754
_cell_angle_beta   105.33972158
_cell_angle_gamma   90.00000000
_symmetry_Int_Tables_number   1
_chemical_formula_structural   Tm3(CuSn)4
_chemical_formula_sum   'Tm3 Cu4 Sn4'
_cell_volume   219.80661354
_cell_formula_units_Z   1
loop_
 _symmetry_equiv_pos_site_id
 _symmetry_equiv_pos_as_xyz
  1  'x, y, z'
loop_
 _atom_site_type_symbol
 _atom_site_label
 _atom_site_symmetry_multiplicity
 _atom_site_fract_x
 _atom_site_fract_y
 _atom_site_fract_z
 _atom_site_occupancy
  Tm  Tm0  1  -0.00000000  -0.00000000  -0.00000000  1
  Tm  Tm1  1  0.86898596  0.36898596  0.73797292  1
  Tm  Tm2  1  0.13101404  0.63101404  0.26202708  1
  Cu  Cu3  1  0.32809694  0.01655873  0.65619488  1
  Cu  Cu4  1  0.32809694  0.63963614  0.65619488  1
  Cu  Cu5  1  0.67190306  0.98344127  0.34380512  1
  Cu  Cu6  1  0.67190306  0.36036386  0.34380512  1
  Sn  Sn7  1  0.21626736  0.21626736  0.43253572  1
  Sn  Sn8  1  0.78373264  0.78373264  0.56746428  1
  Sn  Sn9  1  0.50000000  0.29624162  1.00000000  1
  Sn  Sn10  1  0.50000000  0.70375838  0.00000000  1
