# generated using pymatgen
data_EuIn4Au
_symmetry_space_group_name_H-M   'P 1'
_cell_length_a   8.85745703
_cell_length_b   8.85745703
_cell_length_c   7.57961289
_cell_angle_alpha   89.99995046
_cell_angle_beta   90.00004954
_cell_angle_gamma   149.66529103
_symmetry_Int_Tables_number   1
_chemical_formula_structural   EuIn4Au
_chemical_formula_sum   'Eu2 In8 Au2'
_cell_volume   300.33088378
_cell_formula_units_Z   2
loop_
 _symmetry_equiv_pos_site_id
 _symmetry_equiv_pos_as_xyz
  1  'x, y, z'
loop_
 _atom_site_type_symbol
 _atom_site_label
 _atom_site_symmetry_multiplicity
 _atom_site_fract_x
 _atom_site_fract_y
 _atom_site_fract_z
 _atom_site_occupancy
  Eu  Eu0  1  0.62538207  0.37461793  0.75000000  1
  Eu  Eu1  1  0.37461945  0.62538055  0.25000000  1
  In  In2  1  0.82106940  0.17893060  0.95087601  1
  In  In3  1  0.17893273  0.82106727  0.04914481  1
  In  In4  1  0.82106940  0.17893060  0.54912399  1
  In  In5  1  0.17893273  0.82106727  0.45085519  1
  In  In6  1  0.43759710  0.56240290  0.75000000  1
  In  In7  1  0.56239833  0.43760167  0.25000000  1
  In  In8  1  -0.00000218  0.00000218  0.00000316  1
  In  In9  1  -0.00000218  0.00000218  0.49999684  1
  Au  Au10  1  0.27511295  0.72488705  0.75000000  1
  Au  Au11  1  0.72488819  0.27511181  0.25000000  1
