# generated using pymatgen
data_CoTeSe
_symmetry_space_group_name_H-M   'P 1'
_cell_length_a   3.60871371
_cell_length_b   3.60871371
_cell_length_c   5.48888514
_cell_angle_alpha   90.00000000
_cell_angle_beta   90.00000000
_cell_angle_gamma   120.00001553
_symmetry_Int_Tables_number   1
_chemical_formula_structural   CoTeSe
_chemical_formula_sum   'Co1 Te1 Se1'
_cell_volume   61.90412154
_cell_formula_units_Z   1
loop_
 _symmetry_equiv_pos_site_id
 _symmetry_equiv_pos_as_xyz
  1  'x, y, z'
loop_
 _atom_site_type_symbol
 _atom_site_label
 _atom_site_symmetry_multiplicity
 _atom_site_fract_x
 _atom_site_fract_y
 _atom_site_fract_z
 _atom_site_occupancy
  Co  Co0  1  -0.00000000  0.00000000  0.98182770  1
  Te  Te1  1  0.66666700  0.33333300  0.24408256  1
  Se  Se2  1  0.33333300  0.66666700  0.77409073  1
