# generated using pymatgen
data_Nb5(NiP)4
_symmetry_space_group_name_H-M   'P 1'
_cell_length_a   3.51932702
_cell_length_b   7.25833482
_cell_length_c   7.25833504
_cell_angle_alpha   86.63055824
_cell_angle_beta   75.96978318
_cell_angle_gamma   75.96979635
_symmetry_Int_Tables_number   1
_chemical_formula_structural   Nb5(NiP)4
_chemical_formula_sum   'Nb5 Ni4 P4'
_cell_volume   174.51290768
_cell_formula_units_Z   1
loop_
 _symmetry_equiv_pos_site_id
 _symmetry_equiv_pos_as_xyz
  1  'x, y, z'
loop_
 _atom_site_type_symbol
 _atom_site_label
 _atom_site_symmetry_multiplicity
 _atom_site_fract_x
 _atom_site_fract_y
 _atom_site_fract_z
 _atom_site_occupancy
  Nb  Nb0  1  0.80544016  0.06334697  0.32577172  1
  Nb  Nb1  1  0.13121287  0.67422828  0.06334697  1
  Nb  Nb2  1  0.86878713  0.32577172  0.93665303  1
  Nb  Nb3  1  0.19455984  0.93665303  0.67422828  1
  Nb  Nb4  1  0.50000000  0.00000000  0.00000000  1
  Ni  Ni5  1  0.91620477  0.69342446  0.47416701  1
  Ni  Ni6  1  0.08379523  0.30657554  0.52583299  1
  Ni  Ni7  1  0.60962922  0.47416701  0.30657554  1
  Ni  Ni8  1  0.39037078  0.52583299  0.69342446  1
  P  P9  1  0.55474216  0.20684221  0.68367148  1
  P  P10  1  0.23841563  0.31632852  0.20684221  1
  P  P11  1  0.76158437  0.68367148  0.79315779  1
  P  P12  1  0.44525784  0.79315779  0.31632852  1
