# generated using pymatgen
data_ScAu4
_symmetry_space_group_name_H-M   'P 1'
_cell_length_a   4.06599962
_cell_length_b   5.09662352
_cell_length_c   5.09662352
_cell_angle_alpha   80.84451570
_cell_angle_beta   66.49111977
_cell_angle_gamma   66.49111977
_symmetry_Int_Tables_number   1
_chemical_formula_structural   ScAu4
_chemical_formula_sum   'Sc1 Au4'
_cell_volume   88.81155335
_cell_formula_units_Z   1
loop_
 _symmetry_equiv_pos_site_id
 _symmetry_equiv_pos_as_xyz
  1  'x, y, z'
loop_
 _atom_site_type_symbol
 _atom_site_label
 _atom_site_symmetry_multiplicity
 _atom_site_fract_x
 _atom_site_fract_y
 _atom_site_fract_z
 _atom_site_occupancy
  Sc  Sc0  1  -0.00000000  0.00000000  0.00000000  1
  Au  Au1  1  0.60235439  0.60046854  0.19482367  1
  Au  Au2  1  0.39764561  0.39953146  0.80517633  1
  Au  Au3  1  0.20282193  0.19482367  0.39953146  1
  Au  Au4  1  0.79717807  0.80517633  0.60046854  1
