# generated using pymatgen
data_DyAlAu
_symmetry_space_group_name_H-M   'P 1'
_cell_length_a   4.45014710
_cell_length_b   7.16028483
_cell_length_c   7.74354917
_cell_angle_alpha   90.00003897
_cell_angle_beta   90.00000000
_cell_angle_gamma   90.00000000
_symmetry_Int_Tables_number   1
_chemical_formula_structural   DyAlAu
_chemical_formula_sum   'Dy4 Al4 Au4'
_cell_volume   246.74293466
_cell_formula_units_Z   4
loop_
 _symmetry_equiv_pos_site_id
 _symmetry_equiv_pos_as_xyz
  1  'x, y, z'
loop_
 _atom_site_type_symbol
 _atom_site_label
 _atom_site_symmetry_multiplicity
 _atom_site_fract_x
 _atom_site_fract_y
 _atom_site_fract_z
 _atom_site_occupancy
  Dy  Dy0  1  0.25000000  0.00772584  0.30086586  1
  Dy  Dy1  1  0.25000000  0.50772684  0.19913214  1
  Dy  Dy2  1  0.75000000  0.99227938  0.69911614  1
  Dy  Dy3  1  0.75000000  0.49227838  0.80088586  1
  Al  Al4  1  0.25000000  0.17517193  0.92207844  1
  Al  Al5  1  0.25000000  0.67517193  0.57792056  1
  Al  Al6  1  0.75000000  0.82478499  0.07792070  1
  Al  Al7  1  0.75000000  0.32478499  0.42207930  1
  Au  Au8  1  0.25000000  0.28661607  0.59383865  1
  Au  Au9  1  0.25000000  0.78661807  0.90616135  1
  Au  Au10  1  0.75000000  0.71342179  0.40608802  1
  Au  Au11  1  0.75000000  0.21342079  0.09391198  1
