# generated using pymatgen
data_GaAuO2
_symmetry_space_group_name_H-M   'P 1'
_cell_length_a   3.00643404
_cell_length_b   3.00643380
_cell_length_c   12.33482165
_cell_angle_alpha   90.00000000
_cell_angle_beta   90.00000000
_cell_angle_gamma   119.99999169
_symmetry_Int_Tables_number   1
_chemical_formula_structural   GaAuO2
_chemical_formula_sum   'Ga2 Au2 O4'
_cell_volume   96.55324343
_cell_formula_units_Z   2
loop_
 _symmetry_equiv_pos_site_id
 _symmetry_equiv_pos_as_xyz
  1  'x, y, z'
loop_
 _atom_site_type_symbol
 _atom_site_label
 _atom_site_symmetry_multiplicity
 _atom_site_fract_x
 _atom_site_fract_y
 _atom_site_fract_z
 _atom_site_occupancy
  Ga  Ga0  1  0.00000000  -0.00000000  -0.00000000  1
  Ga  Ga1  1  0.00000000  -0.00000000  0.50000000  1
  Au  Au2  1  0.66666700  0.33333300  0.75000000  1
  Au  Au3  1  0.33333300  0.66666700  0.25000000  1
  O  O4  1  0.33333300  0.66666700  0.41958220  1
  O  O5  1  0.66666700  0.33333300  0.91958220  1
  O  O6  1  0.33333300  0.66666700  0.08041780  1
  O  O7  1  0.66666700  0.33333300  0.58041780  1
