# generated using pymatgen
data_KCrF3
_symmetry_space_group_name_H-M   'P 1'
_cell_length_a   5.84707873
_cell_length_b   5.84707873
_cell_length_c   5.84707873
_cell_angle_alpha   118.36052771
_cell_angle_beta   118.62221715
_cell_angle_gamma   92.63364787
_symmetry_Int_Tables_number   1
_chemical_formula_structural   KCrF3
_chemical_formula_sum   'K2 Cr2 F6'
_cell_volume   144.40926393
_cell_formula_units_Z   2
loop_
 _symmetry_equiv_pos_site_id
 _symmetry_equiv_pos_as_xyz
  1  'x, y, z'
loop_
 _atom_site_type_symbol
 _atom_site_label
 _atom_site_symmetry_multiplicity
 _atom_site_fract_x
 _atom_site_fract_y
 _atom_site_fract_z
 _atom_site_occupancy
  K  K0  1  0.25000000  0.25000000  0.00000000  1
  K  K1  1  0.75000000  0.75000000  0.00000000  1
  Cr  Cr2  1  0.50000000  -0.00000000  0.50000000  1
  Cr  Cr3  1  0.00000000  0.50000000  0.50000000  1
  F  F4  1  0.74502429  0.77833402  0.52335831  1
  F  F5  1  0.25497571  0.22166598  0.47664169  1
  F  F6  1  0.24502429  0.72166598  0.96669026  1
  F  F7  1  0.75497571  0.27833402  0.03330974  1
  F  F8  1  0.75000000  0.25000000  0.50000000  1
  F  F9  1  0.25000000  0.75000000  0.50000000  1
