# generated using pymatgen
data_Ti2VTe4
_symmetry_space_group_name_H-M   'P 1'
_cell_length_a   3.92248809
_cell_length_b   6.93323245
_cell_length_c   7.52342903
_cell_angle_alpha   116.53606071
_cell_angle_beta   105.11069884
_cell_angle_gamma   90.00000000
_symmetry_Int_Tables_number   1
_chemical_formula_structural   Ti2VTe4
_chemical_formula_sum   'Ti2 V1 Te4'
_cell_volume   175.10624836
_cell_formula_units_Z   1
loop_
 _symmetry_equiv_pos_site_id
 _symmetry_equiv_pos_as_xyz
  1  'x, y, z'
loop_
 _atom_site_type_symbol
 _atom_site_label
 _atom_site_symmetry_multiplicity
 _atom_site_fract_x
 _atom_site_fract_y
 _atom_site_fract_z
 _atom_site_occupancy
  Ti  Ti0  1  0.25192779  0.29564277  0.50385657  1
  Ti  Ti1  1  0.74807221  0.70435623  0.49614343  1
  V  V2  1  -0.00000000  -0.00000000  -0.00000000  1
  Te  Te3  1  0.11062237  0.45212406  0.22124474  1
  Te  Te4  1  0.88937763  0.54787594  0.77875526  1
  Te  Te5  1  0.36476862  0.02785345  0.72953724  1
  Te  Te6  1  0.63523138  0.97214655  0.27046276  1
