# generated using pymatgen
data_CoNiTe4
_symmetry_space_group_name_H-M   'P 1'
_cell_length_a   3.81700496
_cell_length_b   5.53856332
_cell_length_c   6.63668542
_cell_angle_alpha   89.48727729
_cell_angle_beta   90.00000000
_cell_angle_gamma   90.00000000
_symmetry_Int_Tables_number   1
_chemical_formula_structural   CoNiTe4
_chemical_formula_sum   'Co1 Ni1 Te4'
_cell_volume   140.29871471
_cell_formula_units_Z   1
loop_
 _symmetry_equiv_pos_site_id
 _symmetry_equiv_pos_as_xyz
  1  'x, y, z'
loop_
 _atom_site_type_symbol
 _atom_site_label
 _atom_site_symmetry_multiplicity
 _atom_site_fract_x
 _atom_site_fract_y
 _atom_site_fract_z
 _atom_site_occupancy
  Co  Co0  1  0.00000000  0.00000000  -0.00000000  1
  Ni  Ni1  1  0.50000000  0.00000000  0.50000000  1
  Te  Te2  1  0.00000000  0.77122199  0.33006707  1
  Te  Te3  1  0.50000000  0.76321195  0.84002971  1
  Te  Te4  1  0.50000000  0.23678805  0.15997029  1
  Te  Te5  1  0.00000000  0.22877801  0.66993293  1
