# generated using pymatgen
data_CrBO3
_symmetry_space_group_name_H-M   'P 1'
_cell_length_a   5.44564480
_cell_length_b   5.44564519
_cell_length_c   5.44564052
_cell_angle_alpha   49.79199416
_cell_angle_beta   49.79199045
_cell_angle_gamma   49.79199964
_symmetry_Int_Tables_number   1
_chemical_formula_structural   CrBO3
_chemical_formula_sum   'Cr2 B2 O6'
_cell_volume   86.63825815
_cell_formula_units_Z   2
loop_
 _symmetry_equiv_pos_site_id
 _symmetry_equiv_pos_as_xyz
  1  'x, y, z'
loop_
 _atom_site_type_symbol
 _atom_site_label
 _atom_site_symmetry_multiplicity
 _atom_site_fract_x
 _atom_site_fract_y
 _atom_site_fract_z
 _atom_site_occupancy
  Cr  Cr0  1  0.50000000  0.50000000  0.50000000  1
  Cr  Cr1  1  0.00000000  0.00000000  -0.00000000  1
  B  B2  1  0.74999900  0.75000100  0.75000000  1
  B  B3  1  0.25000100  0.24999900  0.25000000  1
  O  O4  1  0.44958181  0.05041819  0.75000000  1
  O  O5  1  0.74999900  0.44958381  0.05041619  1
  O  O6  1  0.94958381  0.24999900  0.55041619  1
  O  O7  1  0.55041819  0.94958181  0.25000000  1
  O  O8  1  0.25000100  0.55041619  0.94958381  1
  O  O9  1  0.05041619  0.75000100  0.44958381  1
