# generated using pymatgen
data_Ce2NiSn4
_symmetry_space_group_name_H-M   'P 1'
_cell_length_a   4.49629121
_cell_length_b   4.52786190
_cell_length_c   9.05702232
_cell_angle_alpha   75.52460521
_cell_angle_beta   90.00000000
_cell_angle_gamma   90.00000000
_symmetry_Int_Tables_number   1
_chemical_formula_structural   Ce2NiSn4
_chemical_formula_sum   'Ce2 Ni1 Sn4'
_cell_volume   178.53477626
_cell_formula_units_Z   1
loop_
 _symmetry_equiv_pos_site_id
 _symmetry_equiv_pos_as_xyz
  1  'x, y, z'
loop_
 _atom_site_type_symbol
 _atom_site_label
 _atom_site_symmetry_multiplicity
 _atom_site_fract_x
 _atom_site_fract_y
 _atom_site_fract_z
 _atom_site_occupancy
  Ce  Ce0  1  0.25000000  0.89329508  0.21340785  1
  Ce  Ce1  1  0.75000000  0.10413674  0.79172752  1
  Ni  Ni2  1  0.25000000  0.68848130  0.62303741  1
  Sn  Sn3  1  0.25000000  0.25677680  0.48644639  1
  Sn  Sn4  1  0.75000000  0.75568762  0.48862575  1
  Sn  Sn5  1  0.25000000  0.54610983  0.90778035  1
  Sn  Sn6  1  0.75000000  0.44011263  0.11977473  1
