# generated using pymatgen
data_ThCo9Si2
_symmetry_space_group_name_H-M   'P 1'
_cell_length_a   7.51354366
_cell_length_b   7.51354366
_cell_length_c   7.51354366
_cell_angle_alpha   100.44504550
_cell_angle_beta   100.44504550
_cell_angle_gamma   129.59935148
_symmetry_Int_Tables_number   1
_chemical_formula_structural   ThCo9Si2
_chemical_formula_sum   'Th2 Co18 Si4'
_cell_volume   295.72159255
_cell_formula_units_Z   2
loop_
 _symmetry_equiv_pos_site_id
 _symmetry_equiv_pos_as_xyz
  1  'x, y, z'
loop_
 _atom_site_type_symbol
 _atom_site_label
 _atom_site_symmetry_multiplicity
 _atom_site_fract_x
 _atom_site_fract_y
 _atom_site_fract_z
 _atom_site_occupancy
  Th  Th0  1  -0.00000000  -0.00000000  0.00000000  1
  Th  Th1  1  0.25000000  0.75000000  0.50000000  1
  Co  Co2  1  0.75000000  0.25000000  0.50000000  1
  Co  Co3  1  0.77426463  0.18912447  0.83085931  1
  Co  Co4  1  0.35826515  0.94340531  0.16914069  1
  Co  Co5  1  0.19340531  0.52426463  0.08514016  1
  Co  Co6  1  0.89173485  0.56087553  0.08514016  1
  Co  Co7  1  0.47573537  0.80659469  0.91485984  1
  Co  Co8  1  0.43912447  0.10826515  0.91485984  1
  Co  Co9  1  0.05659469  0.64173485  0.83085931  1
  Co  Co10  1  0.81087553  0.64173485  0.58514016  1
  Co  Co11  1  0.47573537  0.56087553  0.66914069  1
  Co  Co12  1  0.89173485  0.80659469  0.33085931  1
  Co  Co13  1  0.05659469  0.22573537  0.41485984  1
  Co  Co14  1  0.35826515  0.18912447  0.41485984  1
  Co  Co15  1  0.77426463  0.94340531  0.58514016  1
  Co  Co16  1  0.43912447  0.52426463  0.33085931  1
  Co  Co17  1  0.19340531  0.10826515  0.66914069  1
  Co  Co18  1  0.81087553  0.22573537  0.16914069  1
  Co  Co19  1  0.50000000  0.50000000  0.00000000  1
  Si  Si20  1  0.62500000  0.87500000  0.25000000  1
  Si  Si21  1  0.62500000  0.37500000  0.25000000  1
  Si  Si22  1  0.12500000  0.37500000  0.75000000  1
  Si  Si23  1  0.62500000  0.37500000  0.75000000  1
