# generated using pymatgen
data_Y2MnCoO6
_symmetry_space_group_name_H-M   'P 1'
_cell_length_a   5.22576342
_cell_length_b   5.57211432
_cell_length_c   7.47515745
_cell_angle_alpha   90.00015228
_cell_angle_beta   89.68884311
_cell_angle_gamma   89.99945418
_symmetry_Int_Tables_number   1
_chemical_formula_structural   Y2MnCoO6
_chemical_formula_sum   'Y4 Mn2 Co2 O12'
_cell_volume   217.66254487
_cell_formula_units_Z   2
loop_
 _symmetry_equiv_pos_site_id
 _symmetry_equiv_pos_as_xyz
  1  'x, y, z'
loop_
 _atom_site_type_symbol
 _atom_site_label
 _atom_site_symmetry_multiplicity
 _atom_site_fract_x
 _atom_site_fract_y
 _atom_site_fract_z
 _atom_site_occupancy
  Y  Y0  1  0.98027653  0.07328122  0.24955617  1
  Y  Y1  1  0.48028025  0.42671129  0.74954512  1
  Y  Y2  1  0.01972367  0.92672001  0.75044334  1
  Y  Y3  1  0.51971930  0.57328775  0.25045428  1
  Mn  Mn4  1  -0.00000095  0.49999929  0.49999867  1
  Mn  Mn5  1  0.49999853  0.00000010  -0.00000033  1
  Co  Co6  1  0.49999793  -0.00000221  0.50000161  1
  Co  Co7  1  -0.00000186  0.50000231  0.00000176  1
  O  O8  1  0.10632542  0.46569349  0.25700232  1
  O  O9  1  0.60634407  0.03431096  0.75700258  1
  O  O10  1  0.89367472  0.53430642  0.74299784  1
  O  O11  1  0.39365649  0.96568899  0.24299705  1
  O  O12  1  0.29827271  0.68654881  0.55118091  1
  O  O13  1  0.79829566  0.81344202  0.05121119  1
  O  O14  1  0.70172952  0.31345484  0.44881902  1
  O  O15  1  0.20170684  0.18655451  0.94878824  1
  O  O16  1  0.18046223  0.20819259  0.55592480  1
  O  O17  1  0.68045262  0.29182460  0.05596086  1
  O  O18  1  0.81953873  0.79180774  0.44407457  1
  O  O19  1  0.31954857  0.70817528  0.94403797  1
