# generated using pymatgen
data_CsSO4
_symmetry_space_group_name_H-M   'P 1'
_cell_length_a   5.88036817
_cell_length_b   5.34096645
_cell_length_c   7.08513227
_cell_angle_alpha   77.66391993
_cell_angle_beta   89.99993351
_cell_angle_gamma   90.00001059
_symmetry_Int_Tables_number   1
_chemical_formula_structural   CsSO4
_chemical_formula_sum   'Cs2 S2 O8'
_cell_volume   217.38392878
_cell_formula_units_Z   2
loop_
 _symmetry_equiv_pos_site_id
 _symmetry_equiv_pos_as_xyz
  1  'x, y, z'
loop_
 _atom_site_type_symbol
 _atom_site_label
 _atom_site_symmetry_multiplicity
 _atom_site_fract_x
 _atom_site_fract_y
 _atom_site_fract_z
 _atom_site_occupancy
  Cs  Cs0  1  0.74999962  0.45857936  0.23980746  1
  Cs  Cs1  1  0.25000038  0.54142064  0.76019254  1
  S  S2  1  0.75000029  0.01839503  0.74418781  1
  S  S3  1  0.24999971  0.98160497  0.25581219  1
  O  O4  1  0.75000075  0.74030808  0.79627588  1
  O  O5  1  0.24999925  0.25969192  0.20372412  1
  O  O6  1  0.75000023  0.13646959  0.91355756  1
  O  O7  1  0.24999977  0.86353041  0.08644244  1
  O  O8  1  0.95851555  0.11467944  0.63274159  1
  O  O9  1  0.04148445  0.88532056  0.36725841  1
  O  O10  1  0.45851569  0.88532163  0.36725759  1
  O  O11  1  0.54148431  0.11467837  0.63274241  1
