# generated using pymatgen
data_EuInRh
_symmetry_space_group_name_H-M   'P 1'
_cell_length_a   4.34962132
_cell_length_b   7.40416415
_cell_length_c   8.46429955
_cell_angle_alpha   89.96079620
_cell_angle_beta   90.00000000
_cell_angle_gamma   90.00000000
_symmetry_Int_Tables_number   1
_chemical_formula_structural   EuInRh
_chemical_formula_sum   'Eu4 In4 Rh4'
_cell_volume   272.59532921
_cell_formula_units_Z   4
loop_
 _symmetry_equiv_pos_site_id
 _symmetry_equiv_pos_as_xyz
  1  'x, y, z'
loop_
 _atom_site_type_symbol
 _atom_site_label
 _atom_site_symmetry_multiplicity
 _atom_site_fract_x
 _atom_site_fract_y
 _atom_site_fract_z
 _atom_site_occupancy
  Eu  Eu0  1  0.25000000  0.02973455  0.32375639  1
  Eu  Eu1  1  0.25000000  0.52976783  0.17727314  1
  Eu  Eu2  1  0.75000000  0.97020388  0.67671342  1
  Eu  Eu3  1  0.75000000  0.47024232  0.82215974  1
  In  In4  1  0.25000000  0.14523118  0.93699578  1
  In  In5  1  0.25000000  0.64497567  0.56305812  1
  In  In6  1  0.75000000  0.85505594  0.06318854  1
  In  In7  1  0.75000000  0.35489026  0.43669631  1
  Rh  Rh8  1  0.25000000  0.27307992  0.62660810  1
  Rh  Rh9  1  0.25000000  0.77306542  0.87344239  1
  Rh  Rh10  1  0.75000000  0.72688615  0.37335380  1
  Rh  Rh11  1  0.75000000  0.22686688  0.12675427  1
