# generated using pymatgen
data_NaTb(SiO3)2
_symmetry_space_group_name_H-M   'P 1'
_cell_length_a   5.54955400
_cell_length_b   9.47472090
_cell_length_c   9.80953569
_cell_angle_alpha   117.23392556
_cell_angle_beta   97.24679528
_cell_angle_gamma   99.82337887
_symmetry_Int_Tables_number   1
_chemical_formula_structural   NaTb(SiO3)2
_chemical_formula_sum   'Na3 Tb3 Si6 O18'
_cell_volume   439.44034260
_cell_formula_units_Z   3
loop_
 _symmetry_equiv_pos_site_id
 _symmetry_equiv_pos_as_xyz
  1  'x, y, z'
loop_
 _atom_site_type_symbol
 _atom_site_label
 _atom_site_symmetry_multiplicity
 _atom_site_fract_x
 _atom_site_fract_y
 _atom_site_fract_z
 _atom_site_occupancy
  Na  Na0  1  0.00000000  0.00000000  0.00000000  1
  Na  Na1  1  0.23867500  0.66702800  0.93196100  1
  Na  Na2  1  0.76132500  0.33297200  0.06803900  1
  Tb  Tb3  1  0.50000000  0.00000000  0.50000000  1
  Tb  Tb4  1  0.95787500  0.41763400  0.36123900  1
  Tb  Tb5  1  0.04212500  0.58236600  0.63876100  1
  Si  Si6  1  0.65129000  0.64273900  0.12423500  1
  Si  Si7  1  0.34871000  0.35726100  0.87576500  1
  Si  Si8  1  0.26483400  0.24947600  0.62895500  1
  Si  Si9  1  0.73516600  0.75052400  0.37104500  1
  Si  Si10  1  0.86230700  0.88967100  0.74767700  1
  Si  Si11  1  0.13769300  0.11032900  0.25232300  1
  O  O12  1  0.34638500  0.56606900  0.15869700  1
  O  O13  1  0.65361500  0.43393100  0.84130300  1
  O  O14  1  0.81924400  0.51824400  0.16163200  1
  O  O15  1  0.18075600  0.48175600  0.83836800  1
  O  O16  1  0.69095200  0.75620500  0.21244000  1
  O  O17  1  0.30904800  0.24379500  0.78756000  1
  O  O18  1  0.52725200  0.24433300  0.51308800  1
  O  O19  1  0.47274800  0.75566700  0.48691200  1
  O  O20  1  0.14795800  0.39575300  0.55090900  1
  O  O21  1  0.85204200  0.60424700  0.44909100  1
  O  O22  1  0.03690200  0.07265200  0.70330200  1
  O  O23  1  0.96309800  0.92734800  0.29669800  1
  O  O24  1  0.58925300  0.88798000  0.72125700  1
  O  O25  1  0.41074700  0.11202000  0.27874300  1
  O  O26  1  0.05997900  0.82449400  0.64966700  1
  O  O27  1  0.94002100  0.17550600  0.35033300  1
  O  O28  1  0.81680200  0.78702600  0.93680800  1
  O  O29  1  0.18319800  0.21297400  0.06319200  1
