# generated using pymatgen
data_TiNi
_symmetry_space_group_name_H-M   'P 1'
_cell_length_a   2.89871771
_cell_length_b   3.98704034
_cell_length_c   4.89508157
_cell_angle_alpha   90.00000000
_cell_angle_beta   107.01033474
_cell_angle_gamma   90.00000000
_symmetry_Int_Tables_number   1
_chemical_formula_structural   TiNi
_chemical_formula_sum   'Ti2 Ni2'
_cell_volume   54.09895115
_cell_formula_units_Z   2
loop_
 _symmetry_equiv_pos_site_id
 _symmetry_equiv_pos_as_xyz
  1  'x, y, z'
loop_
 _atom_site_type_symbol
 _atom_site_label
 _atom_site_symmetry_multiplicity
 _atom_site_fract_x
 _atom_site_fract_y
 _atom_site_fract_z
 _atom_site_occupancy
  Ti  Ti0  1  0.35861578  0.25000000  0.71523373  1
  Ti  Ti1  1  0.64138422  0.75000000  0.28476627  1
  Ni  Ni2  1  0.08463766  0.25000000  0.17072496  1
  Ni  Ni3  1  0.91536234  0.75000000  0.82927504  1
