# generated using pymatgen
data_DySiPd2
_symmetry_space_group_name_H-M   'P 1'
_cell_length_a   5.51531275
_cell_length_b   6.93007317
_cell_length_c   7.31014666
_cell_angle_alpha   90.00000000
_cell_angle_beta   90.00000000
_cell_angle_gamma   90.00000000
_symmetry_Int_Tables_number   1
_chemical_formula_structural   DySiPd2
_chemical_formula_sum   'Dy4 Si4 Pd8'
_cell_volume   279.40492344
_cell_formula_units_Z   4
loop_
 _symmetry_equiv_pos_site_id
 _symmetry_equiv_pos_as_xyz
  1  'x, y, z'
loop_
 _atom_site_type_symbol
 _atom_site_label
 _atom_site_symmetry_multiplicity
 _atom_site_fract_x
 _atom_site_fract_y
 _atom_site_fract_z
 _atom_site_occupancy
  Dy  Dy0  1  0.35670587  0.75000000  0.02892153  1
  Dy  Dy1  1  0.14329413  0.75000000  0.52892153  1
  Dy  Dy2  1  0.64329413  0.25000000  0.97107847  1
  Dy  Dy3  1  0.85670587  0.25000000  0.47107847  1
  Si  Si4  1  0.64336046  0.75000000  0.37699852  1
  Si  Si5  1  0.85663954  0.75000000  0.87699852  1
  Si  Si6  1  0.35663954  0.25000000  0.62300148  1
  Si  Si7  1  0.14336046  0.25000000  0.12300148  1
  Pd  Pd8  1  0.90691679  0.55184628  0.17725565  1
  Pd  Pd9  1  0.59308321  0.94815372  0.67725565  1
  Pd  Pd10  1  0.09308321  0.05184628  0.82274435  1
  Pd  Pd11  1  0.40691679  0.44815372  0.32274435  1
  Pd  Pd12  1  0.09308321  0.44815372  0.82274435  1
  Pd  Pd13  1  0.40691679  0.05184628  0.32274435  1
  Pd  Pd14  1  0.90691679  0.94815372  0.17725565  1
  Pd  Pd15  1  0.59308321  0.55184628  0.67725565  1
