# generated using pymatgen
data_UTcC2
_symmetry_space_group_name_H-M   'P 1'
_cell_length_a   3.19059234
_cell_length_b   5.62771003
_cell_length_c   10.95622168
_cell_angle_alpha   90.00000000
_cell_angle_beta   90.00000000
_cell_angle_gamma   90.00000000
_symmetry_Int_Tables_number   1
_chemical_formula_structural   UTcC2
_chemical_formula_sum   'U4 Tc4 C8'
_cell_volume   196.72694202
_cell_formula_units_Z   4
loop_
 _symmetry_equiv_pos_site_id
 _symmetry_equiv_pos_as_xyz
  1  'x, y, z'
loop_
 _atom_site_type_symbol
 _atom_site_label
 _atom_site_symmetry_multiplicity
 _atom_site_fract_x
 _atom_site_fract_y
 _atom_site_fract_z
 _atom_site_occupancy
  U  U0  1  0.25000000  0.08150265  0.85794406  1
  U  U1  1  0.25000000  0.58150209  0.64205464  1
  U  U2  1  0.75000000  0.91849791  0.14205464  1
  U  U3  1  0.75000000  0.41849735  0.35794406  1
  Tc  Tc4  1  0.25000000  0.42230773  0.10187799  1
  Tc  Tc5  1  0.25000000  0.92231157  0.39812123  1
  Tc  Tc6  1  0.75000000  0.57768843  0.89812123  1
  Tc  Tc7  1  0.75000000  0.07769227  0.60187799  1
  C  C8  1  0.25000000  0.16160346  0.24247865  1
  C  C9  1  0.25000000  0.66157345  0.25752559  1
  C  C10  1  0.75000000  0.83842655  0.75752559  1
  C  C11  1  0.75000000  0.33839654  0.74247865  1
  C  C12  1  0.25000000  0.74085382  0.99275567  1
  C  C13  1  0.25000000  0.24085420  0.50724117  1
  C  C14  1  0.75000000  0.25914580  0.00724117  1
  C  C15  1  0.75000000  0.75914618  0.49275567  1
