# generated using pymatgen
data_USeS
_symmetry_space_group_name_H-M   'P 1'
_cell_length_a   4.14817279
_cell_length_b   7.37520482
_cell_length_c   8.68891950
_cell_angle_alpha   89.99824023
_cell_angle_beta   90.00000000
_cell_angle_gamma   90.00000000
_symmetry_Int_Tables_number   1
_chemical_formula_structural   USeS
_chemical_formula_sum   'U4 Se4 S4'
_cell_volume   265.82553570
_cell_formula_units_Z   4
loop_
 _symmetry_equiv_pos_site_id
 _symmetry_equiv_pos_as_xyz
  1  'x, y, z'
loop_
 _atom_site_type_symbol
 _atom_site_label
 _atom_site_symmetry_multiplicity
 _atom_site_fract_x
 _atom_site_fract_y
 _atom_site_fract_z
 _atom_site_occupancy
  U  U0  1  0.25000000  0.72861969  0.37408862  1
  U  U1  1  0.75000000  0.27136030  0.62589472  1
  U  U2  1  0.25000000  0.22862844  0.12590190  1
  U  U3  1  0.75000000  0.77138602  0.87410265  1
  Se  Se4  1  0.75000000  0.53303390  0.16212328  1
  Se  Se5  1  0.25000000  0.46695905  0.83793243  1
  Se  Se6  1  0.75000000  0.03307759  0.33790519  1
  Se  Se7  1  0.25000000  0.96694262  0.66207416  1
  S  S8  1  0.25000000  0.35809900  0.42883818  1
  S  S9  1  0.75000000  0.64188479  0.57115204  1
  S  S10  1  0.25000000  0.85811819  0.07113804  1
  S  S11  1  0.75000000  0.14189140  0.92884980  1
