# generated using pymatgen
data_NdSi2Rh3
_symmetry_space_group_name_H-M   'P 1'
_cell_length_a   5.58455175
_cell_length_b   6.64453693
_cell_length_c   6.64453693
_cell_angle_alpha   65.11977287
_cell_angle_beta   65.15049533
_cell_angle_gamma   65.15049533
_symmetry_Int_Tables_number   1
_chemical_formula_structural   NdSi2Rh3
_chemical_formula_sum   'Nd2 Si4 Rh6'
_cell_volume   193.88765833
_cell_formula_units_Z   2
loop_
 _symmetry_equiv_pos_site_id
 _symmetry_equiv_pos_as_xyz
  1  'x, y, z'
loop_
 _atom_site_type_symbol
 _atom_site_label
 _atom_site_symmetry_multiplicity
 _atom_site_fract_x
 _atom_site_fract_y
 _atom_site_fract_z
 _atom_site_occupancy
  Nd  Nd0  1  0.96167013  0.75000000  0.75000000  1
  Nd  Nd1  1  0.03832987  0.25000000  0.25000000  1
  Si  Si2  1  0.61988609  0.57820559  0.57820559  1
  Si  Si3  1  0.38011391  0.42179441  0.42179441  1
  Si  Si4  1  0.72370373  0.07820559  0.07820559  1
  Si  Si5  1  0.27629627  0.92179441  0.92179441  1
  Rh  Rh6  1  0.50000000  0.78316692  0.21683308  1
  Rh  Rh7  1  -0.00000000  0.28316692  0.71683308  1
  Rh  Rh8  1  0.50000000  0.21683308  0.78316692  1
  Rh  Rh9  1  0.00000000  0.71683308  0.28316692  1
  Rh  Rh10  1  0.50000000  0.00000000  0.50000000  1
  Rh  Rh11  1  0.50000000  0.50000000  0.00000000  1
