# generated using pymatgen
data_YbZnPt
_symmetry_space_group_name_H-M   'P 1'
_cell_length_a   4.00354630
_cell_length_b   6.84971001
_cell_length_c   8.12880891
_cell_angle_alpha   90.00000000
_cell_angle_beta   90.00000000
_cell_angle_gamma   90.00000000
_symmetry_Int_Tables_number   1
_chemical_formula_structural   YbZnPt
_chemical_formula_sum   'Yb4 Zn4 Pt4'
_cell_volume   222.91739270
_cell_formula_units_Z   4
loop_
 _symmetry_equiv_pos_site_id
 _symmetry_equiv_pos_as_xyz
  1  'x, y, z'
loop_
 _atom_site_type_symbol
 _atom_site_label
 _atom_site_symmetry_multiplicity
 _atom_site_fract_x
 _atom_site_fract_y
 _atom_site_fract_z
 _atom_site_occupancy
  Yb  Yb0  1  0.75000000  0.45219779  0.81571557  1
  Yb  Yb1  1  0.25000000  0.04780221  0.31571557  1
  Yb  Yb2  1  0.75000000  0.95219779  0.68428443  1
  Yb  Yb3  1  0.25000000  0.54780221  0.18428443  1
  Zn  Zn4  1  0.25000000  0.63203221  0.56321692  1
  Zn  Zn5  1  0.25000000  0.13203221  0.93678308  1
  Zn  Zn6  1  0.75000000  0.36796779  0.43678308  1
  Zn  Zn7  1  0.75000000  0.86796779  0.06321692  1
  Pt  Pt8  1  0.25000000  0.74637692  0.87590016  1
  Pt  Pt9  1  0.25000000  0.24637692  0.62409984  1
  Pt  Pt10  1  0.75000000  0.75362308  0.37590016  1
  Pt  Pt11  1  0.75000000  0.25362308  0.12409984  1
