# generated using pymatgen
data_TmGa2Pd
_symmetry_space_group_name_H-M   'P 1'
_cell_length_a   4.37048852
_cell_length_b   5.45722516
_cell_length_c   6.51692022
_cell_angle_alpha   90.00000000
_cell_angle_beta   90.00000000
_cell_angle_gamma   113.60514373
_symmetry_Int_Tables_number   1
_chemical_formula_structural   TmGa2Pd
_chemical_formula_sum   'Tm2 Ga4 Pd2'
_cell_volume   142.42775931
_cell_formula_units_Z   2
loop_
 _symmetry_equiv_pos_site_id
 _symmetry_equiv_pos_as_xyz
  1  'x, y, z'
loop_
 _atom_site_type_symbol
 _atom_site_label
 _atom_site_symmetry_multiplicity
 _atom_site_fract_x
 _atom_site_fract_y
 _atom_site_fract_z
 _atom_site_occupancy
  Tm  Tm0  1  0.08771066  0.17542231  0.75000000  1
  Tm  Tm1  1  0.91228934  0.82457769  0.25000000  1
  Ga  Ga2  1  0.37300733  0.74601366  0.94647999  1
  Ga  Ga3  1  0.62699267  0.25398634  0.05352001  1
  Ga  Ga4  1  0.62699267  0.25398634  0.44647999  1
  Ga  Ga5  1  0.37300733  0.74601366  0.55352001  1
  Pd  Pd6  1  0.79861954  0.59724007  0.75000000  1
  Pd  Pd7  1  0.20138046  0.40275993  0.25000000  1
