# generated using pymatgen
data_Dy3(CoGe2)2
_symmetry_space_group_name_H-M   'P 1'
_cell_length_a   5.64949871
_cell_length_b   5.64949871
_cell_length_c   8.01737192
_cell_angle_alpha   73.54951679
_cell_angle_beta   73.54951679
_cell_angle_gamma   43.37893893
_symmetry_Int_Tables_number   1
_chemical_formula_structural   Dy3(CoGe2)2
_chemical_formula_sum   'Dy3 Co2 Ge4'
_cell_volume   167.38910452
_cell_formula_units_Z   1
loop_
 _symmetry_equiv_pos_site_id
 _symmetry_equiv_pos_as_xyz
  1  'x, y, z'
loop_
 _atom_site_type_symbol
 _atom_site_label
 _atom_site_symmetry_multiplicity
 _atom_site_fract_x
 _atom_site_fract_y
 _atom_site_fract_z
 _atom_site_occupancy
  Dy  Dy0  1  0.37490940  0.37490940  0.69150590  1
  Dy  Dy1  1  0.62509060  0.62509060  0.30849410  1
  Dy  Dy2  1  0.00000000  0.00000000  -0.00000000  1
  Co  Co3  1  0.31536642  0.31536642  0.36162058  1
  Co  Co4  1  0.68463358  0.68463358  0.63837942  1
  Ge  Ge5  1  0.09804211  0.09804211  0.59725259  1
  Ge  Ge6  1  0.90195789  0.90195789  0.40274741  1
  Ge  Ge7  1  0.71038424  0.71038424  0.92050216  1
  Ge  Ge8  1  0.28961576  0.28961576  0.07949784  1
