# generated using pymatgen
data_HoAlPd
_symmetry_space_group_name_H-M   'P 1'
_cell_length_a   4.42178148
_cell_length_b   6.86808117
_cell_length_c   7.69342342
_cell_angle_alpha   90.00000000
_cell_angle_beta   90.00000000
_cell_angle_gamma   90.00000000
_symmetry_Int_Tables_number   1
_chemical_formula_structural   HoAlPd
_chemical_formula_sum   'Ho4 Al4 Pd4'
_cell_volume   233.64276156
_cell_formula_units_Z   4
loop_
 _symmetry_equiv_pos_site_id
 _symmetry_equiv_pos_as_xyz
  1  'x, y, z'
loop_
 _atom_site_type_symbol
 _atom_site_label
 _atom_site_symmetry_multiplicity
 _atom_site_fract_x
 _atom_site_fract_y
 _atom_site_fract_z
 _atom_site_occupancy
  Ho  Ho0  1  0.75000000  0.46827167  0.81969501  1
  Ho  Ho1  1  0.75000000  0.96827167  0.68030499  1
  Ho  Ho2  1  0.25000000  0.53172833  0.18030499  1
  Ho  Ho3  1  0.25000000  0.03172833  0.31969501  1
  Al  Al4  1  0.75000000  0.35567826  0.43739752  1
  Al  Al5  1  0.75000000  0.85567826  0.06260248  1
  Al  Al6  1  0.25000000  0.64432174  0.56260248  1
  Al  Al7  1  0.25000000  0.14432174  0.93739752  1
  Pd  Pd8  1  0.75000000  0.22715387  0.11781451  1
  Pd  Pd9  1  0.75000000  0.72715387  0.38218549  1
  Pd  Pd10  1  0.25000000  0.77284613  0.88218549  1
  Pd  Pd11  1  0.25000000  0.27284613  0.61781451  1
