# generated using pymatgen
data_YbTlPd
_symmetry_space_group_name_H-M   'P 1'
_cell_length_a   7.72431463
_cell_length_b   7.72431463
_cell_length_c   3.71484101
_cell_angle_alpha   90.00000000
_cell_angle_beta   90.00000000
_cell_angle_gamma   119.99999231
_symmetry_Int_Tables_number   1
_chemical_formula_structural   YbTlPd
_chemical_formula_sum   'Yb3 Tl3 Pd3'
_cell_volume   191.95118939
_cell_formula_units_Z   3
loop_
 _symmetry_equiv_pos_site_id
 _symmetry_equiv_pos_as_xyz
  1  'x, y, z'
loop_
 _atom_site_type_symbol
 _atom_site_label
 _atom_site_symmetry_multiplicity
 _atom_site_fract_x
 _atom_site_fract_y
 _atom_site_fract_z
 _atom_site_occupancy
  Yb  Yb0  1  0.40281133  0.40281133  0.50000000  1
  Yb  Yb1  1  0.00000000  0.59718867  0.50000000  1
  Yb  Yb2  1  0.59718867  0.00000000  0.50000000  1
  Tl  Tl3  1  1.00000000  0.26924619  0.00000000  1
  Tl  Tl4  1  0.26924619  1.00000000  0.00000000  1
  Tl  Tl5  1  0.73075381  0.73075381  0.00000000  1
  Pd  Pd6  1  0.00000000  0.00000000  0.50000000  1
  Pd  Pd7  1  0.33333300  0.66666700  0.00000000  1
  Pd  Pd8  1  0.66666700  0.33333300  0.00000000  1
