# generated using pymatgen
data_BiRhSe
_symmetry_space_group_name_H-M   'P 1'
_cell_length_a   6.34286969
_cell_length_b   6.34286969
_cell_length_c   6.34286969
_cell_angle_alpha   90.00000000
_cell_angle_beta   90.00000000
_cell_angle_gamma   90.00000000
_symmetry_Int_Tables_number   1
_chemical_formula_structural   BiRhSe
_chemical_formula_sum   'Bi4 Rh4 Se4'
_cell_volume   255.18630739
_cell_formula_units_Z   4
loop_
 _symmetry_equiv_pos_site_id
 _symmetry_equiv_pos_as_xyz
  1  'x, y, z'
loop_
 _atom_site_type_symbol
 _atom_site_label
 _atom_site_symmetry_multiplicity
 _atom_site_fract_x
 _atom_site_fract_y
 _atom_site_fract_z
 _atom_site_occupancy
  Bi  Bi0  1  0.12949150  0.62949150  0.87050850  1
  Bi  Bi1  1  0.62949150  0.87050850  0.12949150  1
  Bi  Bi2  1  0.87050850  0.12949150  0.62949150  1
  Bi  Bi3  1  0.37050850  0.37050850  0.37050850  1
  Rh  Rh4  1  0.48718750  0.98718750  0.51281250  1
  Rh  Rh5  1  0.98718750  0.51281250  0.48718750  1
  Rh  Rh6  1  0.51281250  0.48718750  0.98718750  1
  Rh  Rh7  1  0.01281250  0.01281250  0.01281250  1
  Se  Se8  1  0.87804218  0.37804218  0.12195782  1
  Se  Se9  1  0.37804218  0.12195782  0.87804218  1
  Se  Se10  1  0.12195782  0.87804218  0.37804218  1
  Se  Se11  1  0.62195782  0.62195782  0.62195782  1
