# generated using pymatgen
data_Ta2V4Si5
_symmetry_space_group_name_H-M   'P 1'
_cell_length_a   9.36650662
_cell_length_b   9.36645945
_cell_length_c   9.36645945
_cell_angle_alpha   148.26073256
_cell_angle_beta   132.37566998
_cell_angle_gamma   58.36942901
_symmetry_Int_Tables_number   1
_chemical_formula_structural   Ta2V4Si5
_chemical_formula_sum   'Ta4 V8 Si10'
_cell_volume   316.81602086
_cell_formula_units_Z   2
loop_
 _symmetry_equiv_pos_site_id
 _symmetry_equiv_pos_as_xyz
  1  'x, y, z'
loop_
 _atom_site_type_symbol
 _atom_site_label
 _atom_site_symmetry_multiplicity
 _atom_site_fract_x
 _atom_site_fract_y
 _atom_site_fract_z
 _atom_site_occupancy
  Ta  Ta0  1  0.68864033  0.93856327  0.24995116  1
  Ta  Ta1  1  0.68864033  0.43868917  0.75007706  1
  Ta  Ta2  1  0.31136202  0.06143175  0.75004334  1
  Ta  Ta3  1  0.31136202  0.56131869  0.24993027  1
  V  V4  1  0.02471538  0.64336615  0.38134924  1
  V  V5  1  0.68431374  0.43581377  0.24849997  1
  V  V6  1  0.73813166  0.85666420  0.88146746  1
  V  V7  1  0.26188962  0.14332844  0.11856118  1
  V  V8  1  0.18732597  0.93583006  0.25149591  1
  V  V9  1  0.81270733  0.06418406  0.74852327  1
  V  V10  1  0.31568223  0.56419874  0.75148350  1
  V  V11  1  0.97525407  0.35662544  0.61862863  1
  Si  Si12  1  0.65292339  0.55995309  0.09297030  1
  Si  Si13  1  0.01366246  0.20860148  0.80506198  1
  Si  Si14  1  0.40361513  0.70862853  0.69498660  1
  Si  Si15  1  0.59639162  0.29136847  0.30502315  1
  Si  Si16  1  -0.00000389  0.24995663  0.24996926  1
  Si  Si17  1  -0.00000389  0.75002685  0.75003948  1
  Si  Si18  1  0.98631643  0.79139464  0.19492079  1
  Si  Si19  1  0.46695732  0.05995041  0.40700691  1
  Si  Si20  1  0.34706050  0.44005229  0.90700821  1
  Si  Si21  1  0.53305621  0.94005389  0.59300233  1
