# generated using pymatgen
data_Dy3Ge3Ru2
_symmetry_space_group_name_H-M   'P 1'
_cell_length_a   5.80616299
_cell_length_b   5.80616299
_cell_length_c   13.90654109
_cell_angle_alpha   90.00000000
_cell_angle_beta   90.00000000
_cell_angle_gamma   137.15060911
_symmetry_Int_Tables_number   1
_chemical_formula_structural   Dy3Ge3Ru2
_chemical_formula_sum   'Dy6 Ge6 Ru4'
_cell_volume   318.82579715
_cell_formula_units_Z   2
loop_
 _symmetry_equiv_pos_site_id
 _symmetry_equiv_pos_as_xyz
  1  'x, y, z'
loop_
 _atom_site_type_symbol
 _atom_site_label
 _atom_site_symmetry_multiplicity
 _atom_site_fract_x
 _atom_site_fract_y
 _atom_site_fract_z
 _atom_site_occupancy
  Dy  Dy0  1  0.92086910  0.07913090  0.38736561  1
  Dy  Dy1  1  0.07913090  0.92086910  0.61263439  1
  Dy  Dy2  1  0.92086910  0.07913090  0.11263439  1
  Dy  Dy3  1  0.07913090  0.92086910  0.88736561  1
  Dy  Dy4  1  0.64668010  0.35331990  0.25000000  1
  Dy  Dy5  1  0.35331990  0.64668010  0.75000000  1
  Ge  Ge6  1  0.61727226  0.38272774  0.45936408  1
  Ge  Ge7  1  0.38272774  0.61727226  0.54063592  1
  Ge  Ge8  1  0.61727226  0.38272774  0.04063592  1
  Ge  Ge9  1  0.38272774  0.61727226  0.95936408  1
  Ge  Ge10  1  0.33516143  0.66483857  0.25000000  1
  Ge  Ge11  1  0.66483857  0.33516143  0.75000000  1
  Ru  Ru12  1  0.78639636  0.21360364  0.91808732  1
  Ru  Ru13  1  0.21360364  0.78639636  0.08191268  1
  Ru  Ru14  1  0.78639636  0.21360364  0.58191268  1
  Ru  Ru15  1  0.21360364  0.78639636  0.41808732  1
