# generated using pymatgen
data_Tb7RhI12
_symmetry_space_group_name_H-M   'P 1'
_cell_length_a   9.73967470
_cell_length_b   9.73967470
_cell_length_c   9.73967386
_cell_angle_alpha   106.87788178
_cell_angle_beta   106.87788181
_cell_angle_gamma   106.87787519
_symmetry_Int_Tables_number   1
_chemical_formula_structural   Tb7RhI12
_chemical_formula_sum   'Tb7 Rh1 I12'
_cell_volume   771.99648133
_cell_formula_units_Z   1
loop_
 _symmetry_equiv_pos_site_id
 _symmetry_equiv_pos_as_xyz
  1  'x, y, z'
loop_
 _atom_site_type_symbol
 _atom_site_label
 _atom_site_symmetry_multiplicity
 _atom_site_fract_x
 _atom_site_fract_y
 _atom_site_fract_z
 _atom_site_occupancy
  Tb  Tb0  1  0.50000000  0.50000000  0.50000000  1
  Tb  Tb1  1  0.90522696  0.97725818  0.70335719  1
  Tb  Tb2  1  0.97725818  0.70335719  0.90522696  1
  Tb  Tb3  1  0.70335719  0.90522696  0.97725818  1
  Tb  Tb4  1  0.09477304  0.02274182  0.29664281  1
  Tb  Tb5  1  0.02274182  0.29664281  0.09477304  1
  Tb  Tb6  1  0.29664281  0.09477304  0.02274182  1
  Rh  Rh7  1  0.00000000  0.00000000  0.00000000  1
  I  I8  1  0.53369897  0.83888624  0.61201798  1
  I  I9  1  0.83888624  0.61201798  0.53369897  1
  I  I10  1  0.61201798  0.53369897  0.83888624  1
  I  I11  1  0.46630103  0.16111376  0.38798202  1
  I  I12  1  0.16111376  0.38798202  0.46630103  1
  I  I13  1  0.38798202  0.46630103  0.16111376  1
  I  I14  1  0.67592047  0.22746817  0.07176435  1
  I  I15  1  0.22746817  0.07176435  0.67592047  1
  I  I16  1  0.07176435  0.67592047  0.22746817  1
  I  I17  1  0.32407953  0.77253183  0.92823565  1
  I  I18  1  0.77253183  0.92823565  0.32407953  1
  I  I19  1  0.92823565  0.32407953  0.77253183  1
