# generated using pymatgen
data_Sr2CoMoO6
_symmetry_space_group_name_H-M   'P 1'
_cell_length_a   5.56046400
_cell_length_b   5.56431567
_cell_length_c   5.56046400
_cell_angle_alpha   119.97710455
_cell_angle_beta   90.00000000
_cell_angle_gamma   119.97710455
_symmetry_Int_Tables_number   1
_chemical_formula_structural   Sr2CoMoO6
_chemical_formula_sum   'Sr2 Co1 Mo1 O6'
_cell_volume   121.73603139
_cell_formula_units_Z   1
loop_
 _symmetry_equiv_pos_site_id
 _symmetry_equiv_pos_as_xyz
  1  'x, y, z'
loop_
 _atom_site_type_symbol
 _atom_site_label
 _atom_site_symmetry_multiplicity
 _atom_site_fract_x
 _atom_site_fract_y
 _atom_site_fract_z
 _atom_site_occupancy
  Sr  Sr0  1  0.75000000  0.50000000  0.25000000  1
  Sr  Sr1  1  0.25000000  0.50000000  0.75000000  1
  Co  Co2  1  0.00000000  0.00000000  0.00000000  1
  Mo  Mo3  1  0.50000000  0.00000000  0.50000000  1
  O  O4  1  0.25225000  0.50450000  0.25225000  1
  O  O5  1  0.21593100  0.00000000  0.71305400  1
  O  O6  1  0.71305400  0.00000000  0.78406900  1
  O  O7  1  0.28694600  0.00000000  0.21593100  1
  O  O8  1  0.74775000  0.49550000  0.74775000  1
  O  O9  1  0.78406900  0.00000000  0.28694600  1
