# generated using pymatgen
data_Sm2GaCo2
_symmetry_space_group_name_H-M   'P 1'
_cell_length_a   5.60050238
_cell_length_b   5.60050238
_cell_length_c   5.60050238
_cell_angle_alpha   134.98252399
_cell_angle_beta   126.22131964
_cell_angle_gamma   72.67466826
_symmetry_Int_Tables_number   1
_chemical_formula_structural   Sm2GaCo2
_chemical_formula_sum   'Sm2 Ga1 Co2'
_cell_volume   97.99986319
_cell_formula_units_Z   1
loop_
 _symmetry_equiv_pos_site_id
 _symmetry_equiv_pos_as_xyz
  1  'x, y, z'
loop_
 _atom_site_type_symbol
 _atom_site_label
 _atom_site_symmetry_multiplicity
 _atom_site_fract_x
 _atom_site_fract_y
 _atom_site_fract_z
 _atom_site_occupancy
  Sm  Sm0  1  0.30866178  0.80866178  0.50000000  1
  Sm  Sm1  1  0.69133822  0.19133822  0.50000000  1
  Ga  Ga2  1  -0.00000000  -0.00000000  -0.00000000  1
  Co  Co3  1  0.73427697  0.50000000  0.23427697  1
  Co  Co4  1  0.26572303  0.50000000  0.76572303  1
