# generated using pymatgen
data_PrAlZn
_symmetry_space_group_name_H-M   'P 1'
_cell_length_a   5.79812099
_cell_length_b   5.79812099
_cell_length_c   7.57525553
_cell_angle_alpha   50.66336578
_cell_angle_beta   50.66336578
_cell_angle_gamma   46.66665622
_symmetry_Int_Tables_number   1
_chemical_formula_structural   PrAlZn
_chemical_formula_sum   'Pr2 Al2 Zn2'
_cell_volume   134.01781376
_cell_formula_units_Z   2
loop_
 _symmetry_equiv_pos_site_id
 _symmetry_equiv_pos_as_xyz
  1  'x, y, z'
loop_
 _atom_site_type_symbol
 _atom_site_label
 _atom_site_symmetry_multiplicity
 _atom_site_fract_x
 _atom_site_fract_y
 _atom_site_fract_z
 _atom_site_occupancy
  Pr  Pr0  1  0.53773401  0.53773401  0.20854868  1
  Pr  Pr1  1  0.46226599  0.46226599  0.79145132  1
  Al  Al2  1  0.16272734  0.16272734  0.39237779  1
  Al  Al3  1  0.83727266  0.83727266  0.60762221  1
  Zn  Zn4  1  0.83538337  0.83538337  0.22115955  1
  Zn  Zn5  1  0.16461663  0.16461663  0.77884045  1
