# generated using pymatgen
data_TiVSe4
_symmetry_space_group_name_H-M   'P 1'
_cell_length_a   3.47194660
_cell_length_b   6.06145133
_cell_length_c   6.38134032
_cell_angle_alpha   89.77380619
_cell_angle_beta   90.00000000
_cell_angle_gamma   90.00000000
_symmetry_Int_Tables_number   1
_chemical_formula_structural   TiVSe4
_chemical_formula_sum   'Ti1 V1 Se4'
_cell_volume   134.29448594
_cell_formula_units_Z   1
loop_
 _symmetry_equiv_pos_site_id
 _symmetry_equiv_pos_as_xyz
  1  'x, y, z'
loop_
 _atom_site_type_symbol
 _atom_site_label
 _atom_site_symmetry_multiplicity
 _atom_site_fract_x
 _atom_site_fract_y
 _atom_site_fract_z
 _atom_site_occupancy
  Ti  Ti0  1  -0.00000000  -0.00000000  -0.00000000  1
  V  V1  1  0.50000000  0.50000000  -0.00000000  1
  Se  Se2  1  -0.00000000  0.66320784  0.76137758  1
  Se  Se3  1  0.50000000  0.16814317  0.75733590  1
  Se  Se4  1  0.50000000  0.83185683  0.24266410  1
  Se  Se5  1  -0.00000000  0.33679216  0.23862242  1
