# generated using pymatgen
data_GdPS
_symmetry_space_group_name_H-M   'P 1'
_cell_length_a   5.39310332
_cell_length_b   5.44231239
_cell_length_c   16.82333698
_cell_angle_alpha   90.00000000
_cell_angle_beta   90.00000000
_cell_angle_gamma   90.00000000
_symmetry_Int_Tables_number   1
_chemical_formula_structural   GdPS
_chemical_formula_sum   'Gd8 P8 S8'
_cell_volume   493.78097332
_cell_formula_units_Z   8
loop_
 _symmetry_equiv_pos_site_id
 _symmetry_equiv_pos_as_xyz
  1  'x, y, z'
loop_
 _atom_site_type_symbol
 _atom_site_label
 _atom_site_symmetry_multiplicity
 _atom_site_fract_x
 _atom_site_fract_y
 _atom_site_fract_z
 _atom_site_occupancy
  Gd  Gd0  1  0.25000000  0.01587145  0.86200951  1
  Gd  Gd1  1  0.25000000  0.51587145  0.63799049  1
  Gd  Gd2  1  0.75000000  0.98412855  0.13799049  1
  Gd  Gd3  1  0.75000000  0.48412855  0.36200951  1
  Gd  Gd4  1  0.25000000  0.98550819  0.35245099  1
  Gd  Gd5  1  0.25000000  0.48550819  0.14754901  1
  Gd  Gd6  1  0.75000000  0.01449181  0.64754901  1
  Gd  Gd7  1  0.75000000  0.51449181  0.85245099  1
  P  P8  1  0.45810062  0.70027164  0.00295855  1
  P  P9  1  0.04189938  0.20027164  0.49704145  1
  P  P10  1  0.95810062  0.29972836  0.99704145  1
  P  P11  1  0.54189938  0.79972836  0.50295855  1
  P  P12  1  0.54189938  0.29972836  0.99704145  1
  P  P13  1  0.95810062  0.79972836  0.50295855  1
  P  P14  1  0.04189938  0.70027164  0.00295855  1
  P  P15  1  0.45810062  0.20027164  0.49704145  1
  S  S16  1  0.25000000  0.51444407  0.81121682  1
  S  S17  1  0.25000000  0.01444407  0.68878318  1
  S  S18  1  0.75000000  0.48555593  0.18878318  1
  S  S19  1  0.75000000  0.98555593  0.31121682  1
  S  S20  1  0.25000000  0.48934396  0.31700829  1
  S  S21  1  0.25000000  0.98934396  0.18299171  1
  S  S22  1  0.75000000  0.51065604  0.68299171  1
  S  S23  1  0.75000000  0.01065604  0.81700829  1
