# generated using pymatgen
data_PrAlGe
_symmetry_space_group_name_H-M   'P 1'
_cell_length_a   4.30094777
_cell_length_b   4.30094851
_cell_length_c   7.94912357
_cell_angle_alpha   105.69577861
_cell_angle_beta   105.69578411
_cell_angle_gamma   90.00001068
_symmetry_Int_Tables_number   1
_chemical_formula_structural   PrAlGe
_chemical_formula_sum   'Pr2 Al2 Ge2'
_cell_volume   135.85694853
_cell_formula_units_Z   2
loop_
 _symmetry_equiv_pos_site_id
 _symmetry_equiv_pos_as_xyz
  1  'x, y, z'
loop_
 _atom_site_type_symbol
 _atom_site_label
 _atom_site_symmetry_multiplicity
 _atom_site_fract_x
 _atom_site_fract_y
 _atom_site_fract_z
 _atom_site_occupancy
  Pr  Pr0  1  0.33340632  0.83340632  0.66681464  1
  Pr  Pr1  1  0.58340632  0.58340632  0.16681464  1
  Al  Al2  1  0.91721200  0.41721200  0.83442501  1
  Al  Al3  1  0.16721200  0.16721200  0.33442501  1
  Ge  Ge4  1  0.00087968  0.00087968  0.00176036  1
  Ge  Ge5  1  0.75087968  0.25087968  0.50176036  1
