# generated using pymatgen
data_PrGaPd
_symmetry_space_group_name_H-M   'P 1'
_cell_length_a   4.58771751
_cell_length_b   7.26584873
_cell_length_c   7.63290211
_cell_angle_alpha   90.00000000
_cell_angle_beta   90.00000000
_cell_angle_gamma   90.00000000
_symmetry_Int_Tables_number   1
_chemical_formula_structural   PrGaPd
_chemical_formula_sum   'Pr4 Ga4 Pd4'
_cell_volume   254.43257477
_cell_formula_units_Z   4
loop_
 _symmetry_equiv_pos_site_id
 _symmetry_equiv_pos_as_xyz
  1  'x, y, z'
loop_
 _atom_site_type_symbol
 _atom_site_label
 _atom_site_symmetry_multiplicity
 _atom_site_fract_x
 _atom_site_fract_y
 _atom_site_fract_z
 _atom_site_occupancy
  Pr  Pr0  1  0.25000000  0.02300088  0.69579652  1
  Pr  Pr1  1  0.25000000  0.52300088  0.80420348  1
  Pr  Pr2  1  0.75000000  0.97699912  0.30420348  1
  Pr  Pr3  1  0.75000000  0.47699912  0.19579652  1
  Ga  Ga4  1  0.25000000  0.17216051  0.07903894  1
  Ga  Ga5  1  0.25000000  0.67216051  0.42096106  1
  Ga  Ga6  1  0.75000000  0.82783949  0.92096106  1
  Ga  Ga7  1  0.75000000  0.32783949  0.57903894  1
  Pd  Pd8  1  0.25000000  0.29381652  0.40579811  1
  Pd  Pd9  1  0.25000000  0.79381652  0.09420189  1
  Pd  Pd10  1  0.75000000  0.70618348  0.59420189  1
  Pd  Pd11  1  0.75000000  0.20618348  0.90579811  1
