# generated using pymatgen
data_Y2(SO4)3
_symmetry_space_group_name_H-M   'P 1'
_cell_length_a   9.22350356
_cell_length_b   9.29973242
_cell_length_c   12.79262959
_cell_angle_alpha   90.00000000
_cell_angle_beta   90.00000000
_cell_angle_gamma   90.00000000
_symmetry_Int_Tables_number   1
_chemical_formula_structural   Y2(SO4)3
_chemical_formula_sum   'Y8 S12 O48'
_cell_volume   1097.30206792
_cell_formula_units_Z   4
loop_
 _symmetry_equiv_pos_site_id
 _symmetry_equiv_pos_as_xyz
  1  'x, y, z'
loop_
 _atom_site_type_symbol
 _atom_site_label
 _atom_site_symmetry_multiplicity
 _atom_site_fract_x
 _atom_site_fract_y
 _atom_site_fract_z
 _atom_site_occupancy
  Y  Y0  1  0.75065397  0.46352642  0.11826289  1
  Y  Y1  1  0.75065397  0.03647358  0.88173711  1
  Y  Y2  1  0.74934603  0.96352642  0.38173711  1
  Y  Y3  1  0.74934603  0.53647358  0.61826289  1
  Y  Y4  1  0.24934603  0.53647358  0.88173711  1
  Y  Y5  1  0.24934603  0.96352642  0.11826289  1
  Y  Y6  1  0.25065397  0.03647358  0.61826289  1
  Y  Y7  1  0.25065397  0.46352642  0.38173711  1
  S  S8  1  0.96564639  0.75000000  0.00000000  1
  S  S9  1  0.53435361  0.25000000  0.50000000  1
  S  S10  1  0.03435361  0.25000000  0.00000000  1
  S  S11  1  0.46564639  0.75000000  0.50000000  1
  S  S12  1  0.89362464  0.61224330  0.35452285  1
  S  S13  1  0.89362464  0.88775670  0.64547715  1
  S  S14  1  0.60637536  0.11224330  0.14547715  1
  S  S15  1  0.60637536  0.38775670  0.85452285  1
  S  S16  1  0.10637536  0.38775670  0.64547715  1
  S  S17  1  0.10637536  0.11224330  0.35452285  1
  S  S18  1  0.39362464  0.88775670  0.85452285  1
  S  S19  1  0.39362464  0.61224330  0.14547715  1
  O  O20  1  0.83796087  0.57930414  0.45914794  1
  O  O21  1  0.83796087  0.92069586  0.54085206  1
  O  O22  1  0.66203913  0.07930414  0.04085206  1
  O  O23  1  0.66203913  0.42069586  0.95914794  1
  O  O24  1  0.16203913  0.42069586  0.54085206  1
  O  O25  1  0.16203913  0.07930414  0.45914794  1
  O  O26  1  0.33796087  0.92069586  0.95914794  1
  O  O27  1  0.33796087  0.57930414  0.04085206  1
  O  O28  1  0.64184284  0.26133599  0.17311845  1
  O  O29  1  0.64184284  0.23866401  0.82688155  1
  O  O30  1  0.85815716  0.76133599  0.32688155  1
  O  O31  1  0.85815716  0.73866401  0.67311845  1
  O  O32  1  0.35815716  0.73866401  0.82688155  1
  O  O33  1  0.35815716  0.76133599  0.17311845  1
  O  O34  1  0.14184284  0.23866401  0.67311845  1
  O  O35  1  0.14184284  0.26133599  0.32688155  1
  O  O36  1  0.05687072  0.66915162  0.92673785  1
  O  O37  1  0.94312928  0.33084838  0.07326215  1
  O  O38  1  0.55687072  0.83084838  0.42673785  1
  O  O39  1  0.55687072  0.66915162  0.57326215  1
  O  O40  1  0.05145692  0.59418061  0.35254924  1
  O  O41  1  0.05145692  0.90581939  0.64745076  1
  O  O42  1  0.44854308  0.09418061  0.14745076  1
  O  O43  1  0.44854308  0.40581939  0.85254924  1
  O  O44  1  0.94854308  0.40581939  0.64745076  1
  O  O45  1  0.94854308  0.09418061  0.35254924  1
  O  O46  1  0.55145692  0.90581939  0.85254924  1
  O  O47  1  0.55145692  0.59418061  0.14745076  1
  O  O48  1  0.37364987  0.65131620  0.44045356  1
  O  O49  1  0.37364987  0.84868380  0.55954644  1
  O  O50  1  0.12635013  0.15131620  0.05954644  1
  O  O51  1  0.12635013  0.34868380  0.94045356  1
  O  O52  1  0.62635013  0.34868380  0.55954644  1
  O  O53  1  0.62635013  0.15131620  0.44045356  1
  O  O54  1  0.87364987  0.84868380  0.94045356  1
  O  O55  1  0.87364987  0.65131620  0.05954644  1
  O  O56  1  0.32702964  0.51357217  0.22105982  1
  O  O57  1  0.32702964  0.98642783  0.77894018  1
  O  O58  1  0.17297036  0.01357217  0.27894018  1
  O  O59  1  0.17297036  0.48642783  0.72105982  1
  O  O60  1  0.67297036  0.48642783  0.77894018  1
  O  O61  1  0.67297036  0.01357217  0.22105982  1
  O  O62  1  0.82702964  0.98642783  0.72105982  1
  O  O63  1  0.82702964  0.51357217  0.27894018  1
  O  O64  1  0.44312928  0.33084838  0.42673785  1
  O  O65  1  0.44312928  0.16915162  0.57326215  1
  O  O66  1  0.05687072  0.83084838  0.07326215  1
  O  O67  1  0.94312928  0.16915162  0.92673785  1
