# generated using pymatgen
data_YbGaCuO4
_symmetry_space_group_name_H-M   'P 1'
_cell_length_a   8.15125660
_cell_length_b   8.15125660
_cell_length_c   8.15125725
_cell_angle_alpha   24.59929464
_cell_angle_beta   24.59929464
_cell_angle_gamma   24.59929573
_symmetry_Int_Tables_number   1
_chemical_formula_structural   YbGaCuO4
_chemical_formula_sum   'Yb1 Ga1 Cu1 O4'
_cell_volume   82.52204728
_cell_formula_units_Z   1
loop_
 _symmetry_equiv_pos_site_id
 _symmetry_equiv_pos_as_xyz
  1  'x, y, z'
loop_
 _atom_site_type_symbol
 _atom_site_label
 _atom_site_symmetry_multiplicity
 _atom_site_fract_x
 _atom_site_fract_y
 _atom_site_fract_z
 _atom_site_occupancy
  Yb  Yb0  1  0.99643320  0.99643320  0.99643320  1
  Ga  Ga1  1  0.78777787  0.78777787  0.78777787  1
  Cu  Cu2  1  0.21197571  0.21197571  0.21197571  1
  O  O3  1  0.29251842  0.29251842  0.29251842  1
  O  O4  1  0.70903432  0.70903432  0.70903432  1
  O  O5  1  0.12537386  0.12537386  0.12537386  1
  O  O6  1  0.86824663  0.86824663  0.86824663  1
