# generated using pymatgen
data_Sm(Al2Cu)4
_symmetry_space_group_name_H-M   'P 1'
_cell_length_a   5.11405691
_cell_length_b   6.70458945
_cell_length_c   6.69921082
_cell_angle_alpha   81.58155577
_cell_angle_beta   67.56152591
_cell_angle_gamma   67.44560183
_symmetry_Int_Tables_number   1
_chemical_formula_structural   Sm(Al2Cu)4
_chemical_formula_sum   'Sm1 Al8 Cu4'
_cell_volume   196.07125968
_cell_formula_units_Z   1
loop_
 _symmetry_equiv_pos_site_id
 _symmetry_equiv_pos_as_xyz
  1  'x, y, z'
loop_
 _atom_site_type_symbol
 _atom_site_label
 _atom_site_symmetry_multiplicity
 _atom_site_fract_x
 _atom_site_fract_y
 _atom_site_fract_z
 _atom_site_occupancy
  Sm  Sm0  1  0.00000000  -0.00000000  -0.00000000  1
  Al  Al1  1  0.34912914  0.65108917  0.65108452  1
  Al  Al2  1  0.99978535  0.34891083  0.65108452  1
  Al  Al3  1  0.00021465  0.65108917  0.34891548  1
  Al  Al4  1  0.65087086  0.34891083  0.34891548  1
  Al  Al5  1  0.72010302  0.77975074  0.77976124  1
  Al  Al6  1  0.50013574  0.22024926  0.77976124  1
  Al  Al7  1  0.49986426  0.77975074  0.22023876  1
  Al  Al8  1  0.27989698  0.22024926  0.22023876  1
  Cu  Cu9  1  0.50000000  -0.00000000  0.50000000  1
  Cu  Cu10  1  0.00000000  0.50000000  -0.00000000  1
  Cu  Cu11  1  0.50000000  0.50000000  -0.00000000  1
  Cu  Cu12  1  0.00000000  -0.00000000  0.50000000  1
