# generated using pymatgen
data_YbTmSe2
_symmetry_space_group_name_H-M   'P 1'
_cell_length_a   6.95675721
_cell_length_b   6.95675721
_cell_length_c   6.95675671
_cell_angle_alpha   33.12279601
_cell_angle_beta   33.12279601
_cell_angle_gamma   33.12279645
_symmetry_Int_Tables_number   1
_chemical_formula_structural   YbTmSe2
_chemical_formula_sum   'Yb1 Tm1 Se2'
_cell_volume   89.48130711
_cell_formula_units_Z   1
loop_
 _symmetry_equiv_pos_site_id
 _symmetry_equiv_pos_as_xyz
  1  'x, y, z'
loop_
 _atom_site_type_symbol
 _atom_site_label
 _atom_site_symmetry_multiplicity
 _atom_site_fract_x
 _atom_site_fract_y
 _atom_site_fract_z
 _atom_site_occupancy
  Yb  Yb0  1  0.00000000  0.00000000  0.00000000  1
  Tm  Tm1  1  0.50000000  0.50000000  0.50000000  1
  Se  Se2  1  0.25062261  0.25062261  0.25062261  1
  Se  Se3  1  0.74937739  0.74937739  0.74937739  1
