# generated using pymatgen
data_Fe2PO5
_symmetry_space_group_name_H-M   'P 1'
_cell_length_a   6.48381677
_cell_length_b   7.38021312
_cell_length_c   7.42131612
_cell_angle_alpha   90.00000000
_cell_angle_beta   90.00000000
_cell_angle_gamma   90.00000000
_symmetry_Int_Tables_number   1
_chemical_formula_structural   Fe2PO5
_chemical_formula_sum   'Fe8 P4 O20'
_cell_volume   355.12444489
_cell_formula_units_Z   4
loop_
 _symmetry_equiv_pos_site_id
 _symmetry_equiv_pos_as_xyz
  1  'x, y, z'
loop_
 _atom_site_type_symbol
 _atom_site_label
 _atom_site_symmetry_multiplicity
 _atom_site_fract_x
 _atom_site_fract_y
 _atom_site_fract_z
 _atom_site_occupancy
  Fe  Fe0  1  0.75000000  0.85652883  0.72235274  1
  Fe  Fe1  1  0.25000000  0.14347117  0.27764726  1
  Fe  Fe2  1  0.75000000  0.35652883  0.77764726  1
  Fe  Fe3  1  0.25000000  0.64347117  0.22235274  1
  Fe  Fe4  1  -0.00000000  0.50000000  0.50000000  1
  Fe  Fe5  1  0.50000000  0.50000000  0.50000000  1
  Fe  Fe6  1  0.50000000  0.00000000  0.00000000  1
  Fe  Fe7  1  -0.00000000  0.00000000  0.00000000  1
  P  P8  1  0.25000000  0.87500459  0.63662078  1
  P  P9  1  0.75000000  0.12499541  0.36337922  1
  P  P10  1  0.25000000  0.37500459  0.86337922  1
  P  P11  1  0.75000000  0.62499541  0.13662078  1
  O  O12  1  0.56025654  0.62885565  0.26040360  1
  O  O13  1  0.06025654  0.37114435  0.73959640  1
  O  O14  1  0.93974346  0.12885565  0.23959640  1
  O  O15  1  0.43974346  0.87114435  0.76040360  1
  O  O16  1  0.43974346  0.37114435  0.73959640  1
  O  O17  1  0.93974346  0.62885565  0.26040360  1
  O  O18  1  0.06025654  0.87114435  0.76040360  1
  O  O19  1  0.56025654  0.12885565  0.23959640  1
  O  O20  1  0.25000000  0.53941602  0.98279540  1
  O  O21  1  0.75000000  0.46058398  0.01720460  1
  O  O22  1  0.25000000  0.03941602  0.51720460  1
  O  O23  1  0.75000000  0.96058398  0.48279540  1
  O  O24  1  0.25000000  0.89551218  0.13566175  1
  O  O25  1  0.75000000  0.10448782  0.86433825  1
  O  O26  1  0.25000000  0.39551218  0.36433825  1
  O  O27  1  0.75000000  0.60448782  0.63566175  1
  O  O28  1  0.25000000  0.19835698  0.97691954  1
  O  O29  1  0.75000000  0.80164302  0.02308046  1
  O  O30  1  0.25000000  0.69835698  0.52308046  1
  O  O31  1  0.75000000  0.30164302  0.47691954  1
