# generated using pymatgen
data_BaHgPb
_symmetry_space_group_name_H-M   'P 1'
_cell_length_a   6.69375337
_cell_length_b   6.69375337
_cell_length_c   8.58518631
_cell_angle_alpha   50.49590975
_cell_angle_beta   50.49590975
_cell_angle_gamma   46.98268195
_symmetry_Int_Tables_number   1
_chemical_formula_structural   BaHgPb
_chemical_formula_sum   'Ba2 Hg2 Pb2'
_cell_volume   202.59660132
_cell_formula_units_Z   2
loop_
 _symmetry_equiv_pos_site_id
 _symmetry_equiv_pos_as_xyz
  1  'x, y, z'
loop_
 _atom_site_type_symbol
 _atom_site_label
 _atom_site_symmetry_multiplicity
 _atom_site_fract_x
 _atom_site_fract_y
 _atom_site_fract_z
 _atom_site_occupancy
  Ba  Ba0  1  0.45743874  0.45743874  0.29703461  1
  Ba  Ba1  1  0.54256126  0.54256126  0.70296539  1
  Hg  Hg2  1  0.83942437  0.83942437  0.70897011  1
  Hg  Hg3  1  0.16057563  0.16057563  0.29102989  1
  Pb  Pb4  1  0.16242884  0.16242884  0.90703815  1
  Pb  Pb5  1  0.83757116  0.83757116  0.09296185  1
