# generated using pymatgen
data_Rb2Ni3Se4
_symmetry_space_group_name_H-M   'P 1'
_cell_length_a   6.06373358
_cell_length_b   6.09102290
_cell_length_c   14.26902289
_cell_angle_alpha   83.92884178
_cell_angle_beta   77.73233197
_cell_angle_gamma   60.14809517
_symmetry_Int_Tables_number   1
_chemical_formula_structural   Rb2Ni3Se4
_chemical_formula_sum   'Rb4 Ni6 Se8'
_cell_volume   446.65228676
_cell_formula_units_Z   2
loop_
 _symmetry_equiv_pos_site_id
 _symmetry_equiv_pos_as_xyz
  1  'x, y, z'
loop_
 _atom_site_type_symbol
 _atom_site_label
 _atom_site_symmetry_multiplicity
 _atom_site_fract_x
 _atom_site_fract_y
 _atom_site_fract_z
 _atom_site_occupancy
  Rb  Rb0  1  0.54790693  0.75000000  0.90418514  1
  Rb  Rb1  1  0.70209307  0.75000000  0.59581486  1
  Rb  Rb2  1  0.45209307  0.25000000  0.09581486  1
  Rb  Rb3  1  0.29790693  0.25000000  0.40418514  1
  Ni  Ni4  1  0.87538120  0.75000000  0.24923660  1
  Ni  Ni5  1  0.37461880  0.75000000  0.25076340  1
  Ni  Ni6  1  0.12461880  0.25000000  0.75076340  1
  Ni  Ni7  1  0.12500000  0.75000000  0.75000000  1
  Ni  Ni8  1  0.87500000  0.25000000  0.25000000  1
  Ni  Ni9  1  0.62538120  0.25000000  0.74923660  1
  Se  Se10  1  0.23910690  0.41700955  0.85959515  1
  Se  Se11  1  0.01571160  0.08299045  0.64040485  1
  Se  Se12  1  0.34388355  0.41700955  0.64040485  1
  Se  Se13  1  0.90129695  0.08299045  0.85959515  1
  Se  Se14  1  0.76089310  0.58299045  0.14040485  1
  Se  Se15  1  0.98428840  0.91700955  0.35959515  1
  Se  Se16  1  0.65611645  0.58299045  0.35959515  1
  Se  Se17  1  0.09870305  0.91700955  0.14040485  1
