# generated using pymatgen
data_Tb7RuI12
_symmetry_space_group_name_H-M   'P 1'
_cell_length_a   9.76107449
_cell_length_b   9.76107512
_cell_length_c   9.76107386
_cell_angle_alpha   107.04104101
_cell_angle_beta   107.04103890
_cell_angle_gamma   107.04103645
_symmetry_Int_Tables_number   1
_chemical_formula_structural   Tb7RuI12
_chemical_formula_sum   'Tb7 Ru1 I12'
_cell_volume   773.66189728
_cell_formula_units_Z   1
loop_
 _symmetry_equiv_pos_site_id
 _symmetry_equiv_pos_as_xyz
  1  'x, y, z'
loop_
 _atom_site_type_symbol
 _atom_site_label
 _atom_site_symmetry_multiplicity
 _atom_site_fract_x
 _atom_site_fract_y
 _atom_site_fract_z
 _atom_site_occupancy
  Tb  Tb0  1  0.90737994  0.70427379  0.97891186  1
  Tb  Tb1  1  0.97891186  0.90737994  0.70427379  1
  Tb  Tb2  1  0.70427379  0.97891186  0.90737994  1
  Tb  Tb3  1  0.09262006  0.29572621  0.02108814  1
  Tb  Tb4  1  0.02108814  0.09262006  0.29572621  1
  Tb  Tb5  1  0.29572621  0.02108814  0.09262006  1
  Tb  Tb6  1  0.50000000  0.50000000  0.50000000  1
  Ru  Ru7  1  0.00000000  0.00000000  -0.00000000  1
  I  I8  1  0.61389407  0.83947407  0.53580299  1
  I  I9  1  0.53580299  0.61389407  0.83947407  1
  I  I10  1  0.83947407  0.53580299  0.61389407  1
  I  I11  1  0.38610593  0.16052593  0.46419701  1
  I  I12  1  0.46419701  0.38610593  0.16052593  1
  I  I13  1  0.16052593  0.46419701  0.38610593  1
  I  I14  1  0.67839710  0.07441731  0.22894308  1
  I  I15  1  0.22894308  0.67839710  0.07441731  1
  I  I16  1  0.07441731  0.22894308  0.67839710  1
  I  I17  1  0.32160290  0.92558269  0.77105692  1
  I  I18  1  0.77105692  0.32160290  0.92558269  1
  I  I19  1  0.92558269  0.77105692  0.32160290  1
