# generated using pymatgen
data_Zr4CoNi
_symmetry_space_group_name_H-M   'P 1'
_cell_length_a   5.24890704
_cell_length_b   5.24890704
_cell_length_c   5.24891695
_cell_angle_alpha   105.19385424
_cell_angle_beta   105.19385424
_cell_angle_gamma   118.41325376
_symmetry_Int_Tables_number   1
_chemical_formula_structural   Zr4CoNi
_chemical_formula_sum   'Zr4 Co1 Ni1'
_cell_volume   109.26107029
_cell_formula_units_Z   1
loop_
 _symmetry_equiv_pos_site_id
 _symmetry_equiv_pos_as_xyz
  1  'x, y, z'
loop_
 _atom_site_type_symbol
 _atom_site_label
 _atom_site_symmetry_multiplicity
 _atom_site_fract_x
 _atom_site_fract_y
 _atom_site_fract_z
 _atom_site_occupancy
  Zr  Zr0  1  0.91754768  0.41754768  0.83509436  1
  Zr  Zr1  1  0.58245232  0.08245232  0.16490564  1
  Zr  Zr2  1  0.08245332  0.91754668  0.50000000  1
  Zr  Zr3  1  0.41754668  0.58245332  0.50000000  1
  Co  Co4  1  0.00000000  0.00000000  0.00000000  1
  Ni  Ni5  1  0.50000000  0.50000000  0.00000000  1
