# generated using pymatgen
data_TbMnB4
_symmetry_space_group_name_H-M   'P 1'
_cell_length_a   3.40556220
_cell_length_b   5.95556679
_cell_length_c   11.53108944
_cell_angle_alpha   90.00000000
_cell_angle_beta   90.00000000
_cell_angle_gamma   90.00000000
_symmetry_Int_Tables_number   1
_chemical_formula_structural   TbMnB4
_chemical_formula_sum   'Tb4 Mn4 B16'
_cell_volume   233.87416878
_cell_formula_units_Z   4
loop_
 _symmetry_equiv_pos_site_id
 _symmetry_equiv_pos_as_xyz
  1  'x, y, z'
loop_
 _atom_site_type_symbol
 _atom_site_label
 _atom_site_symmetry_multiplicity
 _atom_site_fract_x
 _atom_site_fract_y
 _atom_site_fract_z
 _atom_site_occupancy
  Tb  Tb0  1  0.00000000  0.62659016  0.34963833  1
  Tb  Tb1  1  0.00000000  0.37340984  0.65036167  1
  Tb  Tb2  1  -0.00000000  0.12659016  0.15036167  1
  Tb  Tb3  1  -0.00000000  0.87340984  0.84963833  1
  Mn  Mn4  1  -0.00000000  0.63143184  0.08619383  1
  Mn  Mn5  1  -0.00000000  0.36856816  0.91380617  1
  Mn  Mn6  1  -0.00000000  0.13143184  0.41380617  1
  Mn  Mn7  1  0.00000000  0.86856816  0.58619383  1
  B  B8  1  0.50000000  0.78238935  0.18468473  1
  B  B9  1  0.50000000  0.21761065  0.81531527  1
  B  B10  1  0.50000000  0.28238935  0.31531527  1
  B  B11  1  0.50000000  0.71761065  0.68468473  1
  B  B12  1  0.50000000  0.86123398  0.03233795  1
  B  B13  1  0.50000000  0.13876602  0.96766205  1
  B  B14  1  0.50000000  0.36123398  0.46766205  1
  B  B15  1  0.50000000  0.63876602  0.53233795  1
  B  B16  1  0.50000000  0.88764101  0.45367662  1
  B  B17  1  0.50000000  0.11235899  0.54632338  1
  B  B18  1  0.50000000  0.38764101  0.04632338  1
  B  B19  1  0.50000000  0.61235899  0.95367662  1
  B  B20  1  0.50000000  0.97624840  0.30952678  1
  B  B21  1  0.50000000  0.02375160  0.69047322  1
  B  B22  1  0.50000000  0.47624840  0.19047322  1
  B  B23  1  0.50000000  0.52375160  0.80952678  1
