# generated using pymatgen
data_ZnPd2
_symmetry_space_group_name_H-M   'P 1'
_cell_length_a   4.16592258
_cell_length_b   5.35763478
_cell_length_c   7.75001790
_cell_angle_alpha   90.00000000
_cell_angle_beta   90.00000000
_cell_angle_gamma   90.00000000
_symmetry_Int_Tables_number   1
_chemical_formula_structural   ZnPd2
_chemical_formula_sum   'Zn4 Pd8'
_cell_volume   172.97646024
_cell_formula_units_Z   4
loop_
 _symmetry_equiv_pos_site_id
 _symmetry_equiv_pos_as_xyz
  1  'x, y, z'
loop_
 _atom_site_type_symbol
 _atom_site_label
 _atom_site_symmetry_multiplicity
 _atom_site_fract_x
 _atom_site_fract_y
 _atom_site_fract_z
 _atom_site_occupancy
  Zn  Zn0  1  0.75000000  0.18638030  0.59913732  1
  Zn  Zn1  1  0.75000000  0.68638030  0.90086268  1
  Zn  Zn2  1  0.25000000  0.81361970  0.40086268  1
  Zn  Zn3  1  0.25000000  0.31361970  0.09913732  1
  Pd  Pd4  1  0.75000000  0.67329054  0.56949112  1
  Pd  Pd5  1  0.75000000  0.17329054  0.93050888  1
  Pd  Pd6  1  0.25000000  0.32670946  0.43050888  1
  Pd  Pd7  1  0.25000000  0.82670946  0.06949112  1
  Pd  Pd8  1  0.75000000  0.53794739  0.22372551  1
  Pd  Pd9  1  0.75000000  0.03794739  0.27627449  1
  Pd  Pd10  1  0.25000000  0.46205261  0.77627449  1
  Pd  Pd11  1  0.25000000  0.96205261  0.72372551  1
