# generated using pymatgen
data_KHfPdF7
_symmetry_space_group_name_H-M   'P 1'
_cell_length_a   6.27702392
_cell_length_b   7.90132685
_cell_length_c   11.40966625
_cell_angle_alpha   90.00000000
_cell_angle_beta   90.00000000
_cell_angle_gamma   90.00000000
_symmetry_Int_Tables_number   1
_chemical_formula_structural   KHfPdF7
_chemical_formula_sum   'K4 Hf4 Pd4 F28'
_cell_volume   565.88313630
_cell_formula_units_Z   4
loop_
 _symmetry_equiv_pos_site_id
 _symmetry_equiv_pos_as_xyz
  1  'x, y, z'
loop_
 _atom_site_type_symbol
 _atom_site_label
 _atom_site_symmetry_multiplicity
 _atom_site_fract_x
 _atom_site_fract_y
 _atom_site_fract_z
 _atom_site_occupancy
  K  K0  1  0.27416644  -0.00000000  0.25000000  1
  K  K1  1  0.22583356  0.50000000  0.25000000  1
  K  K2  1  0.72583356  -0.00000000  0.75000000  1
  K  K3  1  0.77416644  0.50000000  0.75000000  1
  Hf  Hf4  1  0.75000000  0.75000000  0.40666811  1
  Hf  Hf5  1  0.75000000  0.25000000  0.09333189  1
  Hf  Hf6  1  0.25000000  0.25000000  0.59333189  1
  Hf  Hf7  1  0.25000000  0.75000000  0.90666811  1
  Pd  Pd8  1  0.25000000  0.75000000  0.59809467  1
  Pd  Pd9  1  0.25000000  0.25000000  0.90190533  1
  Pd  Pd10  1  0.75000000  0.25000000  0.40190533  1
  Pd  Pd11  1  0.75000000  0.75000000  0.09809467  1
  F  F12  1  0.94815079  0.17150228  0.54728444  1
  F  F13  1  0.94815079  0.82849772  0.95271556  1
  F  F14  1  0.55184921  0.67150228  0.95271556  1
  F  F15  1  0.55184921  0.32849772  0.54728444  1
  F  F16  1  0.05184921  0.82849772  0.45271556  1
  F  F17  1  0.05184921  0.17150228  0.04728444  1
  F  F18  1  0.44815079  0.32849772  0.04728444  1
  F  F19  1  0.44815079  0.67150228  0.45271556  1
  F  F20  1  0.25000000  0.75000000  0.08066287  1
  F  F21  1  0.25000000  0.25000000  0.41933713  1
  F  F22  1  0.75000000  0.25000000  0.91933713  1
  F  F23  1  0.75000000  0.75000000  0.58066287  1
  F  F24  1  0.93490422  0.79563632  0.25526714  1
  F  F25  1  0.93490422  0.20436368  0.24473286  1
  F  F26  1  0.56509578  0.29563632  0.24473286  1
  F  F27  1  0.56509578  0.70436368  0.25526714  1
  F  F28  1  0.06509578  0.20436368  0.74473286  1
  F  F29  1  0.06509578  0.79563632  0.75526714  1
  F  F30  1  0.43490422  0.70436368  0.75526714  1
  F  F31  1  0.43490422  0.29563632  0.74473286  1
  F  F32  1  0.63816948  0.01285429  0.10626755  1
  F  F33  1  0.63816948  0.98714571  0.39373245  1
  F  F34  1  0.86183052  0.51285429  0.39373245  1
  F  F35  1  0.86183052  0.48714571  0.10626755  1
  F  F36  1  0.36183052  0.98714571  0.89373245  1
  F  F37  1  0.36183052  0.01285429  0.60626755  1
  F  F38  1  0.13816948  0.48714571  0.60626755  1
  F  F39  1  0.13816948  0.51285429  0.89373245  1
