# generated using pymatgen
data_VMoAs2
_symmetry_space_group_name_H-M   'P 1'
_cell_length_a   3.37379976
_cell_length_b   5.96203395
_cell_length_c   6.31710973
_cell_angle_alpha   90.02354908
_cell_angle_beta   89.99999772
_cell_angle_gamma   90.00000240
_symmetry_Int_Tables_number   1
_chemical_formula_structural   VMoAs2
_chemical_formula_sum   'V2 Mo2 As4'
_cell_volume   127.06681135
_cell_formula_units_Z   2
loop_
 _symmetry_equiv_pos_site_id
 _symmetry_equiv_pos_as_xyz
  1  'x, y, z'
loop_
 _atom_site_type_symbol
 _atom_site_label
 _atom_site_symmetry_multiplicity
 _atom_site_fract_x
 _atom_site_fract_y
 _atom_site_fract_z
 _atom_site_occupancy
  V  V0  1  0.00000007  0.50907442  0.43375830  1
  V  V1  1  0.00000015  0.00916579  0.56617540  1
  Mo  Mo2  1  0.50000007  0.49050398  0.06453996  1
  Mo  Mo3  1  0.50000000  0.99045981  0.93548944  1
  As  As4  1  0.49999986  0.30759312  0.67310722  1
  As  As5  1  0.49999981  0.80746458  0.32691880  1
  As  As6  1  0.00000003  0.69288224  0.81585593  1
  As  As7  1  0.00000001  0.19285807  0.18415595  1
