# generated using pymatgen
data_HoAgSe2
_symmetry_space_group_name_H-M   'P 1'
_cell_length_a   5.60780598
_cell_length_b   5.60780598
_cell_length_c   7.32004237
_cell_angle_alpha   112.52240261
_cell_angle_beta   112.52240261
_cell_angle_gamma   90.00000000
_symmetry_Int_Tables_number   1
_chemical_formula_structural   HoAgSe2
_chemical_formula_sum   'Ho2 Ag2 Se4'
_cell_volume   193.49605410
_cell_formula_units_Z   2
loop_
 _symmetry_equiv_pos_site_id
 _symmetry_equiv_pos_as_xyz
  1  'x, y, z'
loop_
 _atom_site_type_symbol
 _atom_site_label
 _atom_site_symmetry_multiplicity
 _atom_site_fract_x
 _atom_site_fract_y
 _atom_site_fract_z
 _atom_site_occupancy
  Ho  Ho0  1  0.25088178  0.75088178  0.50176457  1
  Ho  Ho1  1  0.00088178  0.00088178  0.00176457  1
  Ag  Ag2  1  0.79102484  0.29102484  0.58204868  1
  Ag  Ag3  1  0.54102484  0.54102484  0.08204868  1
  Se  Se4  1  0.48007515  0.98007515  0.96015031  1
  Se  Se5  1  0.23007515  0.23007515  0.46015031  1
  Se  Se6  1  0.01801722  0.51801722  0.03603544  1
  Se  Se7  1  0.76801722  0.76801722  0.53603544  1
