# generated using pymatgen
data_Cs2KRuF6
_symmetry_space_group_name_H-M   'P 1'
_cell_length_a   6.44164774
_cell_length_b   6.44240031
_cell_length_c   6.39512257
_cell_angle_alpha   60.23469455
_cell_angle_beta   60.24640121
_cell_angle_gamma   59.51890424
_symmetry_Int_Tables_number   1
_chemical_formula_structural   Cs2KRuF6
_chemical_formula_sum   'Cs2 K1 Ru1 F6'
_cell_volume   187.64320131
_cell_formula_units_Z   1
loop_
 _symmetry_equiv_pos_site_id
 _symmetry_equiv_pos_as_xyz
  1  'x, y, z'
loop_
 _atom_site_type_symbol
 _atom_site_label
 _atom_site_symmetry_multiplicity
 _atom_site_fract_x
 _atom_site_fract_y
 _atom_site_fract_z
 _atom_site_occupancy
  Cs  Cs0  1  0.75000000  0.75000000  0.75000000  1
  Cs  Cs1  1  0.25000000  0.25000000  0.25000000  1
  K  K2  1  0.50000000  0.50000000  0.50000000  1
  Ru  Ru3  1  0.00000000  -0.00000000  0.00000000  1
  F  F4  1  0.78020992  0.21979008  0.21979008  1
  F  F5  1  0.22401081  0.22401081  0.77598919  1
  F  F6  1  0.21979008  0.78020992  0.78020992  1
  F  F7  1  0.21973460  0.78026540  0.21973460  1
  F  F8  1  0.78026540  0.21973460  0.78026540  1
  F  F9  1  0.77598919  0.77598919  0.22401081  1
