# generated using pymatgen
data_TmGaPt
_symmetry_space_group_name_H-M   'P 1'
_cell_length_a   4.37284574
_cell_length_b   6.80435700
_cell_length_c   7.57680929
_cell_angle_alpha   90.00000000
_cell_angle_beta   90.00000000
_cell_angle_gamma   90.00000000
_symmetry_Int_Tables_number   1
_chemical_formula_structural   TmGaPt
_chemical_formula_sum   'Tm4 Ga4 Pt4'
_cell_volume   225.44344102
_cell_formula_units_Z   4
loop_
 _symmetry_equiv_pos_site_id
 _symmetry_equiv_pos_as_xyz
  1  'x, y, z'
loop_
 _atom_site_type_symbol
 _atom_site_label
 _atom_site_symmetry_multiplicity
 _atom_site_fract_x
 _atom_site_fract_y
 _atom_site_fract_z
 _atom_site_occupancy
  Tm  Tm0  1  0.75000000  0.51393698  0.19864036  1
  Tm  Tm1  1  0.75000000  0.01393698  0.30135964  1
  Tm  Tm2  1  0.25000000  0.48606302  0.80135964  1
  Tm  Tm3  1  0.25000000  0.98606302  0.69864036  1
  Ga  Ga4  1  0.75000000  0.17305329  0.92458744  1
  Ga  Ga5  1  0.75000000  0.67305329  0.57541256  1
  Ga  Ga6  1  0.25000000  0.82694671  0.07541256  1
  Ga  Ga7  1  0.25000000  0.32694671  0.42458744  1
  Pt  Pt8  1  0.75000000  0.27489532  0.59812022  1
  Pt  Pt9  1  0.75000000  0.77489532  0.90187978  1
  Pt  Pt10  1  0.25000000  0.72510468  0.40187978  1
  Pt  Pt11  1  0.25000000  0.22510468  0.09812022  1
