# generated using pymatgen
data_U2TlSe6
_symmetry_space_group_name_H-M   'P 1'
_cell_length_a   11.58730877
_cell_length_b   11.58730877
_cell_length_c   11.58730877
_cell_angle_alpha   159.67732757
_cell_angle_beta   152.44139894
_cell_angle_gamma   34.48345857
_symmetry_Int_Tables_number   1
_chemical_formula_structural   U2TlSe6
_chemical_formula_sum   'U2 Tl1 Se6'
_cell_volume   249.74617298
_cell_formula_units_Z   1
loop_
 _symmetry_equiv_pos_site_id
 _symmetry_equiv_pos_as_xyz
  1  'x, y, z'
loop_
 _atom_site_type_symbol
 _atom_site_label
 _atom_site_symmetry_multiplicity
 _atom_site_fract_x
 _atom_site_fract_y
 _atom_site_fract_z
 _atom_site_occupancy
  U  U0  1  0.67899290  0.17899290  0.50000000  1
  U  U1  1  0.32100710  0.82100710  0.50000000  1
  Tl  Tl2  1  -0.00000000  0.00000000  -0.00000000  1
  Se  Se3  1  0.77121465  0.77121465  -0.00000000  1
  Se  Se4  1  0.22878535  0.22878535  -0.00000000  1
  Se  Se5  1  0.85042273  0.60544532  0.24497741  1
  Se  Se6  1  0.14957727  0.39455468  0.75502259  1
  Se  Se7  1  0.63953209  0.39455468  0.24497741  1
  Se  Se8  1  0.36046791  0.60544532  0.75502259  1
