# generated using pymatgen
data_Na4WO5
_symmetry_space_group_name_H-M   'P 1'
_cell_length_a   5.74220000
_cell_length_b   5.77678704
_cell_length_c   8.61041295
_cell_angle_alpha   109.21438057
_cell_angle_beta   101.32926712
_cell_angle_gamma   102.32052496
_symmetry_Int_Tables_number   1
_chemical_formula_structural   Na4WO5
_chemical_formula_sum   'Na8 W2 O10'
_cell_volume   252.24913170
_cell_formula_units_Z   2
loop_
 _symmetry_equiv_pos_site_id
 _symmetry_equiv_pos_as_xyz
  1  'x, y, z'
loop_
 _atom_site_type_symbol
 _atom_site_label
 _atom_site_symmetry_multiplicity
 _atom_site_fract_x
 _atom_site_fract_y
 _atom_site_fract_z
 _atom_site_occupancy
  Na  Na0  1  0.30826800  0.51242200  0.90223900  1
  Na  Na1  1  0.11945300  0.50736200  0.29284900  1
  Na  Na2  1  0.30205800  0.99711300  0.39791800  1
  Na  Na3  1  0.69794200  0.00288700  0.60208200  1
  Na  Na4  1  0.69173200  0.48757800  0.09776100  1
  Na  Na5  1  0.50000000  0.50000000  0.50000000  1
  Na  Na6  1  0.50000000  0.00000000  0.00000000  1
  Na  Na7  1  0.88054700  0.49263800  0.70715100  1
  W  W8  1  0.10146900  0.00310000  0.79509900  1
  W  W9  1  0.89853100  0.99690000  0.20490100  1
  O  O10  1  0.75997300  0.78512000  0.84416100  1
  O  O11  1  0.24002700  0.21488000  0.15583900  1
  O  O12  1  0.09166000  0.22091300  0.60066600  1
  O  O13  1  0.90834000  0.77908700  0.39933400  1
  O  O14  1  0.56350900  0.77824000  0.24176900  1
  O  O15  1  0.43649100  0.22176000  0.75823100  1
  O  O16  1  0.92272400  0.19073900  0.96342200  1
  O  O17  1  0.07727600  0.80926100  0.03657800  1
  O  O18  1  0.74064000  0.20897700  0.31448300  1
  O  O19  1  0.25936000  0.79102300  0.68551700  1
