# generated using pymatgen
data_CeZnPt
_symmetry_space_group_name_H-M   'P 1'
_cell_length_a   4.30531583
_cell_length_b   7.06964954
_cell_length_c   8.13582962
_cell_angle_alpha   90.02232517
_cell_angle_beta   90.00214109
_cell_angle_gamma   90.01492235
_symmetry_Int_Tables_number   1
_chemical_formula_structural   CeZnPt
_chemical_formula_sum   'Ce4 Zn4 Pt4'
_cell_volume   247.63082154
_cell_formula_units_Z   4
loop_
 _symmetry_equiv_pos_site_id
 _symmetry_equiv_pos_as_xyz
  1  'x, y, z'
loop_
 _atom_site_type_symbol
 _atom_site_label
 _atom_site_symmetry_multiplicity
 _atom_site_fract_x
 _atom_site_fract_y
 _atom_site_fract_z
 _atom_site_occupancy
  Ce  Ce0  1  0.74879172  0.46414544  0.80770736  1
  Ce  Ce1  1  0.25121922  0.03590216  0.30756797  1
  Ce  Ce2  1  0.74877452  0.96425944  0.69232059  1
  Ce  Ce3  1  0.25120420  0.53573142  0.19247712  1
  Zn  Zn4  1  0.25013493  0.64483801  0.56615121  1
  Zn  Zn5  1  0.25014503  0.14511877  0.93376955  1
  Zn  Zn6  1  0.74987040  0.35510085  0.43420656  1
  Zn  Zn7  1  0.74984796  0.85492862  0.06589720  1
  Pt  Pt8  1  0.24958581  0.76209598  0.88644232  1
  Pt  Pt9  1  0.24960183  0.26212562  0.61345988  1
  Pt  Pt10  1  0.75040378  0.73802906  0.38674160  1
  Pt  Pt11  1  0.75042059  0.23772463  0.11325865  1
