# generated using pymatgen
data_ErPS
_symmetry_space_group_name_H-M   'P 1'
_cell_length_a   5.27733221
_cell_length_b   5.29993915
_cell_length_c   16.56911051
_cell_angle_alpha   90.00000000
_cell_angle_beta   90.00000000
_cell_angle_gamma   90.00000000
_symmetry_Int_Tables_number   1
_chemical_formula_structural   ErPS
_chemical_formula_sum   'Er8 P8 S8'
_cell_volume   463.43039234
_cell_formula_units_Z   8
loop_
 _symmetry_equiv_pos_site_id
 _symmetry_equiv_pos_as_xyz
  1  'x, y, z'
loop_
 _atom_site_type_symbol
 _atom_site_label
 _atom_site_symmetry_multiplicity
 _atom_site_fract_x
 _atom_site_fract_y
 _atom_site_fract_z
 _atom_site_occupancy
  Er  Er0  1  0.25000000  0.48383526  0.36171590  1
  Er  Er1  1  0.25000000  0.98383526  0.13828410  1
  Er  Er2  1  0.75000000  0.51616474  0.63828410  1
  Er  Er3  1  0.75000000  0.01616474  0.86171590  1
  Er  Er4  1  0.25000000  0.01375077  0.64640530  1
  Er  Er5  1  0.25000000  0.51375077  0.85359470  1
  Er  Er6  1  0.75000000  0.98624923  0.35359470  1
  Er  Er7  1  0.75000000  0.48624923  0.14640530  1
  P  P8  1  0.03756463  0.29232658  0.99725472  1
  P  P9  1  0.46243537  0.79232658  0.50274528  1
  P  P10  1  0.53756463  0.70767342  0.00274528  1
  P  P11  1  0.96243537  0.20767342  0.49725472  1
  P  P12  1  0.96243537  0.70767342  0.00274528  1
  P  P13  1  0.53756463  0.20767342  0.49725472  1
  P  P14  1  0.46243537  0.29232658  0.99725472  1
  P  P15  1  0.03756463  0.79232658  0.50274528  1
  S  S16  1  0.25000000  0.48513890  0.18899252  1
  S  S17  1  0.25000000  0.98513890  0.31100748  1
  S  S18  1  0.75000000  0.51486110  0.81100748  1
  S  S19  1  0.75000000  0.01486110  0.68899252  1
  S  S20  1  0.25000000  0.01034884  0.81548232  1
  S  S21  1  0.25000000  0.51034884  0.68451768  1
  S  S22  1  0.75000000  0.98965116  0.18451768  1
  S  S23  1  0.75000000  0.48965116  0.31548232  1
