# generated using pymatgen
data_NbS2
_symmetry_space_group_name_H-M   'P 1'
_cell_length_a   6.61550314
_cell_length_b   6.61550314
_cell_length_c   6.61550301
_cell_angle_alpha   29.76206194
_cell_angle_beta   29.76206194
_cell_angle_gamma   29.76206048
_symmetry_Int_Tables_number   1
_chemical_formula_structural   NbS2
_chemical_formula_sum   'Nb1 S2'
_cell_volume   63.17206833
_cell_formula_units_Z   1
loop_
 _symmetry_equiv_pos_site_id
 _symmetry_equiv_pos_as_xyz
  1  'x, y, z'
loop_
 _atom_site_type_symbol
 _atom_site_label
 _atom_site_symmetry_multiplicity
 _atom_site_fract_x
 _atom_site_fract_y
 _atom_site_fract_z
 _atom_site_occupancy
  Nb  Nb0  1  0.00000000  0.00000000  0.00000000  1
  S  S1  1  0.74750406  0.74750406  0.74750406  1
  S  S2  1  0.25249594  0.25249594  0.25249594  1
