# generated using pymatgen
data_ErCrO4
_symmetry_space_group_name_H-M   'P 1'
_cell_length_a   5.86286323
_cell_length_b   5.86283443
_cell_length_c   5.86293623
_cell_angle_alpha   106.28680831
_cell_angle_beta   106.28828228
_cell_angle_gamma   116.04570374
_symmetry_Int_Tables_number   1
_chemical_formula_structural   ErCrO4
_chemical_formula_sum   'Er2 Cr2 O8'
_cell_volume   153.58579612
_cell_formula_units_Z   2
loop_
 _symmetry_equiv_pos_site_id
 _symmetry_equiv_pos_as_xyz
  1  'x, y, z'
loop_
 _atom_site_type_symbol
 _atom_site_label
 _atom_site_symmetry_multiplicity
 _atom_site_fract_x
 _atom_site_fract_y
 _atom_site_fract_z
 _atom_site_occupancy
  Er  Er0  1  0.12500004  0.87499895  0.24999963  1
  Er  Er1  1  0.87499932  0.12500043  0.74999926  1
  Cr  Cr2  1  0.37499989  0.62500765  0.74999978  1
  Cr  Cr3  1  0.62498982  0.37499076  0.24999939  1
  O  O4  1  0.79588340  0.73539697  0.42959995  1
  O  O5  1  0.36627694  0.79587419  0.56049052  1
  O  O6  1  0.73538117  0.80577486  0.93950554  1
  O  O7  1  0.80579421  0.36627977  0.07040100  1
  O  O8  1  0.63372055  0.19421096  0.42959565  1
  O  O9  1  0.19421743  0.26461395  0.56048565  1
  O  O10  1  0.26461155  0.20412341  0.07040119  1
  O  O11  1  0.20412369  0.63372709  0.93951645  1
