# generated using pymatgen
data_Y3In5
_symmetry_space_group_name_H-M   'P 1'
_cell_length_a   6.37409343
_cell_length_b   6.37409343
_cell_length_c   10.37057361
_cell_angle_alpha   90.00000000
_cell_angle_beta   90.00000000
_cell_angle_gamma   101.49560751
_symmetry_Int_Tables_number   1
_chemical_formula_structural   Y3In5
_chemical_formula_sum   'Y6 In10'
_cell_volume   412.89450883
_cell_formula_units_Z   2
loop_
 _symmetry_equiv_pos_site_id
 _symmetry_equiv_pos_as_xyz
  1  'x, y, z'
loop_
 _atom_site_type_symbol
 _atom_site_label
 _atom_site_symmetry_multiplicity
 _atom_site_fract_x
 _atom_site_fract_y
 _atom_site_fract_z
 _atom_site_occupancy
  Y  Y0  1  0.62526484  0.62526484  0.25000000  1
  Y  Y1  1  0.37473516  0.37473516  0.75000000  1
  Y  Y2  1  0.79693040  0.20306960  0.50000000  1
  Y  Y3  1  0.79693040  0.20306960  -0.00000000  1
  Y  Y4  1  0.20306960  0.79693040  0.50000000  1
  Y  Y5  1  0.20306960  0.79693040  -0.00000000  1
  In  In6  1  0.00932412  0.00932412  0.25000000  1
  In  In7  1  0.99067588  0.99067588  0.75000000  1
  In  In8  1  0.30940538  0.30940538  0.04619101  1
  In  In9  1  0.69059462  0.69059462  0.95380899  1
  In  In10  1  0.30940538  0.30940538  0.45380899  1
  In  In11  1  0.69059462  0.69059462  0.54619101  1
  In  In12  1  0.07692782  0.50810225  0.25000000  1
  In  In13  1  0.49189775  0.92307218  0.75000000  1
  In  In14  1  0.92307218  0.49189775  0.75000000  1
  In  In15  1  0.50810225  0.07692782  0.25000000  1
