# generated using pymatgen
data_Hf2Se
_symmetry_space_group_name_H-M   'P 1'
_cell_length_a   3.43593983
_cell_length_b   3.43593983
_cell_length_c   12.18747392
_cell_angle_alpha   90.00000000
_cell_angle_beta   90.00000000
_cell_angle_gamma   120.00000703
_symmetry_Int_Tables_number   1
_chemical_formula_structural   Hf2Se
_chemical_formula_sum   'Hf4 Se2'
_cell_volume   124.60497972
_cell_formula_units_Z   2
loop_
 _symmetry_equiv_pos_site_id
 _symmetry_equiv_pos_as_xyz
  1  'x, y, z'
loop_
 _atom_site_type_symbol
 _atom_site_label
 _atom_site_symmetry_multiplicity
 _atom_site_fract_x
 _atom_site_fract_y
 _atom_site_fract_z
 _atom_site_occupancy
  Hf  Hf0  1  0.66666700  0.33333300  0.90597227  1
  Hf  Hf1  1  0.33333300  0.66666700  0.09402873  1
  Hf  Hf2  1  0.33333300  0.66666700  0.40597127  1
  Hf  Hf3  1  0.66666700  0.33333300  0.59402873  1
  Se  Se4  1  0.00000000  0.00000000  0.75000000  1
  Se  Se5  1  0.00000000  0.00000000  0.25000000  1
