# generated using pymatgen
data_Lu5Sn3
_symmetry_space_group_name_H-M   'P 1'
_cell_length_a   6.36830755
_cell_length_b   8.70845856
_cell_length_c   8.70847844
_cell_angle_alpha   120.00055511
_cell_angle_beta   90.00013255
_cell_angle_gamma   89.99999618
_symmetry_Int_Tables_number   1
_chemical_formula_structural   Lu5Sn3
_chemical_formula_sum   'Lu10 Sn6'
_cell_volume   418.24985752
_cell_formula_units_Z   2
loop_
 _symmetry_equiv_pos_site_id
 _symmetry_equiv_pos_as_xyz
  1  'x, y, z'
loop_
 _atom_site_type_symbol
 _atom_site_label
 _atom_site_symmetry_multiplicity
 _atom_site_fract_x
 _atom_site_fract_y
 _atom_site_fract_z
 _atom_site_occupancy
  Lu  Lu0  1  0.49999942  0.33333131  0.66665127  1
  Lu  Lu1  1  0.50000667  0.66666034  0.33334613  1
  Lu  Lu2  1  -0.00000600  0.66667352  0.33335570  1
  Lu  Lu3  1  -0.00000174  0.33334170  0.66665490  1
  Lu  Lu4  1  0.74999662  0.23723747  0.00000222  1
  Lu  Lu5  1  0.75000533  0.76274698  0.76273501  1
  Lu  Lu6  1  0.74999523  0.00000376  0.23725326  1
  Lu  Lu7  1  0.25000381  0.76276297  -0.00000091  1
  Lu  Lu8  1  0.24999254  0.23724746  0.23726469  1
  Lu  Lu9  1  0.25000420  0.99997543  0.76273902  1
  Sn  Sn10  1  0.74999000  0.60539736  0.00002942  1
  Sn  Sn11  1  0.75000770  0.39465343  0.39462414  1
  Sn  Sn12  1  0.75000658  0.99996336  0.60534580  1
  Sn  Sn13  1  0.24999058  0.39464821  0.00003336  1
  Sn  Sn14  1  0.25000778  0.60538363  0.60535144  1
  Sn  Sn15  1  0.25000628  0.99997306  0.39461455  1
