# generated using pymatgen
data_Sm2CdGe2
_symmetry_space_group_name_H-M   'P 1'
_cell_length_a   7.42078490
_cell_length_b   7.42078490
_cell_length_c   4.27440503
_cell_angle_alpha   90.00000000
_cell_angle_beta   90.00000000
_cell_angle_gamma   90.00000000
_symmetry_Int_Tables_number   1
_chemical_formula_structural   Sm2CdGe2
_chemical_formula_sum   'Sm4 Cd2 Ge4'
_cell_volume   235.38314364
_cell_formula_units_Z   2
loop_
 _symmetry_equiv_pos_site_id
 _symmetry_equiv_pos_as_xyz
  1  'x, y, z'
loop_
 _atom_site_type_symbol
 _atom_site_label
 _atom_site_symmetry_multiplicity
 _atom_site_fract_x
 _atom_site_fract_y
 _atom_site_fract_z
 _atom_site_occupancy
  Sm  Sm0  1  0.67942218  0.17942218  0.50000000  1
  Sm  Sm1  1  0.32057782  0.82057782  0.50000000  1
  Sm  Sm2  1  0.17942218  0.32057782  0.50000000  1
  Sm  Sm3  1  0.82057782  0.67942218  0.50000000  1
  Cd  Cd4  1  0.50000000  0.50000000  0.00000000  1
  Cd  Cd5  1  -0.00000000  -0.00000000  0.00000000  1
  Ge  Ge6  1  0.11961691  0.61961691  0.00000000  1
  Ge  Ge7  1  0.88038309  0.38038309  -0.00000000  1
  Ge  Ge8  1  0.61961691  0.88038309  0.00000000  1
  Ge  Ge9  1  0.38038309  0.11961691  -0.00000000  1
