# generated using pymatgen
data_PbAu2
_symmetry_space_group_name_H-M   'P 1'
_cell_length_a   5.69948016
_cell_length_b   5.69947896
_cell_length_c   5.69948080
_cell_angle_alpha   60.00000142
_cell_angle_beta   60.00000846
_cell_angle_gamma   60.00000563
_symmetry_Int_Tables_number   1
_chemical_formula_structural   PbAu2
_chemical_formula_sum   'Pb2 Au4'
_cell_volume   130.91540361
_cell_formula_units_Z   2
loop_
 _symmetry_equiv_pos_site_id
 _symmetry_equiv_pos_as_xyz
  1  'x, y, z'
loop_
 _atom_site_type_symbol
 _atom_site_label
 _atom_site_symmetry_multiplicity
 _atom_site_fract_x
 _atom_site_fract_y
 _atom_site_fract_z
 _atom_site_occupancy
  Pb  Pb0  1  0.12500000  0.12500000  0.12500000  1
  Pb  Pb1  1  0.87500000  0.87500000  0.87500000  1
  Au  Au2  1  0.50000000  -0.00000000  0.50000000  1
  Au  Au3  1  0.00000000  0.50000000  0.50000000  1
  Au  Au4  1  0.50000000  0.50000000  0.50000000  1
  Au  Au5  1  0.50000000  0.50000000  0.00000000  1
