# generated using pymatgen
data_LaAsIr
_symmetry_space_group_name_H-M   'P 1'
_cell_length_a   8.05172579
_cell_length_b   8.05172579
_cell_length_c   8.05172579
_cell_angle_alpha   149.64649614
_cell_angle_beta   149.64649614
_cell_angle_gamma   43.46055662
_symmetry_Int_Tables_number   1
_chemical_formula_structural   LaAsIr
_chemical_formula_sum   'La2 As2 Ir2'
_cell_volume   132.93658361
_cell_formula_units_Z   2
loop_
 _symmetry_equiv_pos_site_id
 _symmetry_equiv_pos_as_xyz
  1  'x, y, z'
loop_
 _atom_site_type_symbol
 _atom_site_label
 _atom_site_symmetry_multiplicity
 _atom_site_fract_x
 _atom_site_fract_y
 _atom_site_fract_z
 _atom_site_occupancy
  La  La0  1  0.74819803  0.24819803  0.50000000  1
  La  La1  1  0.99819803  0.99819803  0.00000000  1
  As  As2  1  0.32744007  0.82744007  0.50000000  1
  As  As3  1  0.57744007  0.57744007  0.00000000  1
  Ir  Ir4  1  0.16236190  0.66236190  0.50000000  1
  Ir  Ir5  1  0.41236190  0.41236190  -0.00000000  1
