# generated using pymatgen
data_HoGePt
_symmetry_space_group_name_H-M   'P 1'
_cell_length_a   4.34432001
_cell_length_b   6.97412117
_cell_length_c   7.55133344
_cell_angle_alpha   90.00000000
_cell_angle_beta   90.00000000
_cell_angle_gamma   90.00000000
_symmetry_Int_Tables_number   1
_chemical_formula_structural   HoGePt
_chemical_formula_sum   'Ho4 Ge4 Pt4'
_cell_volume   228.78889716
_cell_formula_units_Z   4
loop_
 _symmetry_equiv_pos_site_id
 _symmetry_equiv_pos_as_xyz
  1  'x, y, z'
loop_
 _atom_site_type_symbol
 _atom_site_label
 _atom_site_symmetry_multiplicity
 _atom_site_fract_x
 _atom_site_fract_y
 _atom_site_fract_z
 _atom_site_occupancy
  Ho  Ho0  1  0.25000000  0.49742021  0.70455549  1
  Ho  Ho1  1  0.25000000  0.99742021  0.79544451  1
  Ho  Ho2  1  0.75000000  0.50257979  0.29544451  1
  Ho  Ho3  1  0.75000000  0.00257979  0.20455549  1
  Ge  Ge4  1  0.25000000  0.80952228  0.41145324  1
  Ge  Ge5  1  0.25000000  0.30952228  0.08854676  1
  Ge  Ge6  1  0.75000000  0.19047772  0.58854676  1
  Ge  Ge7  1  0.75000000  0.69047772  0.91145324  1
  Pt  Pt8  1  0.25000000  0.20516492  0.41652006  1
  Pt  Pt9  1  0.25000000  0.70516492  0.08347994  1
  Pt  Pt10  1  0.75000000  0.79483508  0.58348094  1
  Pt  Pt11  1  0.75000000  0.29483508  0.91651906  1
