# generated using pymatgen
data_EuCdPt
_symmetry_space_group_name_H-M   'P 1'
_cell_length_a   4.35246097
_cell_length_b   7.38814426
_cell_length_c   8.68030573
_cell_angle_alpha   89.99790756
_cell_angle_beta   90.00000270
_cell_angle_gamma   90.00000376
_symmetry_Int_Tables_number   1
_chemical_formula_structural   EuCdPt
_chemical_formula_sum   'Eu4 Cd4 Pt4'
_cell_volume   279.12920189
_cell_formula_units_Z   4
loop_
 _symmetry_equiv_pos_site_id
 _symmetry_equiv_pos_as_xyz
  1  'x, y, z'
loop_
 _atom_site_type_symbol
 _atom_site_label
 _atom_site_symmetry_multiplicity
 _atom_site_fract_x
 _atom_site_fract_y
 _atom_site_fract_z
 _atom_site_occupancy
  Eu  Eu0  1  0.25000000  0.03815620  0.32116407  1
  Eu  Eu1  1  0.24999998  0.53817135  0.17887398  1
  Eu  Eu2  1  0.75000003  0.96183574  0.67884345  1
  Eu  Eu3  1  0.75000005  0.46185234  0.82112369  1
  Cd  Cd4  1  0.25000003  0.13850489  0.93811484  1
  Cd  Cd5  1  0.24999995  0.63852417  0.56186060  1
  Cd  Cd6  1  0.75000003  0.86149722  0.06187426  1
  Cd  Cd7  1  0.75000002  0.36145535  0.43813997  1
  Pt  Pt8  1  0.24999994  0.25708117  0.62851402  1
  Pt  Pt9  1  0.24999998  0.75712346  0.87147105  1
  Pt  Pt10  1  0.75000006  0.74290659  0.37150234  1
  Pt  Pt11  1  0.74999994  0.24289353  0.12851772  1
