# generated using pymatgen
data_Sc(P2Ru3)2
_symmetry_space_group_name_H-M   'P 1'
_cell_length_a   6.89209121
_cell_length_b   6.89209121
_cell_length_c   3.65292127
_cell_angle_alpha   90.00000000
_cell_angle_beta   90.00000000
_cell_angle_gamma   120.00000415
_symmetry_Int_Tables_number   1
_chemical_formula_structural   Sc(P2Ru3)2
_chemical_formula_sum   'Sc1 P4 Ru6'
_cell_volume   150.27023255
_cell_formula_units_Z   1
loop_
 _symmetry_equiv_pos_site_id
 _symmetry_equiv_pos_as_xyz
  1  'x, y, z'
loop_
 _atom_site_type_symbol
 _atom_site_label
 _atom_site_symmetry_multiplicity
 _atom_site_fract_x
 _atom_site_fract_y
 _atom_site_fract_z
 _atom_site_occupancy
  Sc  Sc0  1  0.00000000  0.00000000  0.00000000  1
  P  P1  1  0.18588535  0.37177170  0.50000000  1
  P  P2  1  0.62822830  0.81411465  0.50000000  1
  P  P3  1  0.18588535  0.81411465  0.50000000  1
  P  P4  1  0.66666700  0.33333300  0.00000000  1
  Ru  Ru5  1  0.80337247  0.60674393  0.50000000  1
  Ru  Ru6  1  0.39325607  0.19662753  0.50000000  1
  Ru  Ru7  1  0.80337247  0.19662753  0.50000000  1
  Ru  Ru8  1  0.46421623  0.92843146  0.00000000  1
  Ru  Ru9  1  0.07156854  0.53578377  -0.00000000  1
  Ru  Ru10  1  0.46421623  0.53578377  0.00000000  1
