# generated using pymatgen
data_LaMgCrWO6
_symmetry_space_group_name_H-M   'P 1'
_cell_length_a   5.45614124
_cell_length_b   5.65278900
_cell_length_c   7.82078940
_cell_angle_alpha   90.00000000
_cell_angle_beta   88.81233217
_cell_angle_gamma   90.00000000
_symmetry_Int_Tables_number   1
_chemical_formula_structural   LaMgCrWO6
_chemical_formula_sum   'La2 Mg2 Cr2 W2 O12'
_cell_volume   241.16021350
_cell_formula_units_Z   2
loop_
 _symmetry_equiv_pos_site_id
 _symmetry_equiv_pos_as_xyz
  1  'x, y, z'
loop_
 _atom_site_type_symbol
 _atom_site_label
 _atom_site_symmetry_multiplicity
 _atom_site_fract_x
 _atom_site_fract_y
 _atom_site_fract_z
 _atom_site_occupancy
  La  La0  1  0.01290600  0.95797900  0.75394800  1
  La  La1  1  0.51290600  0.54202100  0.25394800  1
  Mg  Mg2  1  0.47472600  0.44840400  0.74975600  1
  Mg  Mg3  1  0.97472600  0.05159600  0.24975600  1
  Cr  Cr4  1  0.50047500  0.99957200  0.49934100  1
  Cr  Cr5  1  0.00047500  0.50042800  0.99934100  1
  W  W6  1  0.49849300  0.00297900  0.00230800  1
  W  W7  1  0.99849300  0.49702100  0.50230800  1
  O  O8  1  0.09080800  0.44796100  0.24775300  1
  O  O9  1  0.20794000  0.22573300  0.93478600  1
  O  O10  1  0.21522000  0.21492000  0.55619300  1
  O  O11  1  0.31388300  0.69164100  0.93944700  1
  O  O12  1  0.32185800  0.69277100  0.56561600  1
  O  O13  1  0.36368900  0.97407100  0.25085200  1
  O  O14  1  0.59080800  0.05203900  0.74775300  1
  O  O15  1  0.70794000  0.27426700  0.43478600  1
  O  O16  1  0.71522000  0.28508000  0.05619300  1
  O  O17  1  0.81388300  0.80835900  0.43944700  1
  O  O18  1  0.82185800  0.80722900  0.06561600  1
  O  O19  1  0.86368900  0.52592900  0.75085200  1
