# generated using pymatgen
data_K2P2H2O7
_symmetry_space_group_name_H-M   'P 1'
_cell_length_a   7.28667900
_cell_length_b   7.81910953
_cell_length_c   9.09113592
_cell_angle_alpha   111.59302699
_cell_angle_beta   105.98821420
_cell_angle_gamma   100.25201747
_symmetry_Int_Tables_number   1
_chemical_formula_structural   K2P2H2O7
_chemical_formula_sum   'K4 P4 H4 O14'
_cell_volume   439.80029968
_cell_formula_units_Z   2
loop_
 _symmetry_equiv_pos_site_id
 _symmetry_equiv_pos_as_xyz
  1  'x, y, z'
loop_
 _atom_site_type_symbol
 _atom_site_label
 _atom_site_symmetry_multiplicity
 _atom_site_fract_x
 _atom_site_fract_y
 _atom_site_fract_z
 _atom_site_occupancy
  K  K0  1  0.72686200  0.11884500  0.09732600  1
  K  K1  1  0.27313800  0.88115500  0.90267400  1
  K  K2  1  0.76195400  0.23972700  0.45820800  1
  K  K3  1  0.23804600  0.76027300  0.54179200  1
  P  P4  1  0.36492200  0.32728300  0.31619400  1
  P  P5  1  0.63507800  0.67271700  0.68380600  1
  P  P6  1  0.24192300  0.16075300  0.08791300  1
  P  P7  1  0.75807700  0.83924700  0.91208700  1
  H  H8  1  0.59349900  0.37074300  0.78163600  1
  H  H9  1  0.40650100  0.62925700  0.21836400  1
  H  H10  1  0.76442800  0.57438100  0.09893300  1
  H  H11  1  0.23557200  0.42561900  0.90106700  1
  O  O12  1  0.33220400  0.10928600  0.60446800  1
  O  O13  1  0.66779600  0.89071400  0.39553200  1
  O  O14  1  0.40297400  0.64241800  0.76133700  1
  O  O15  1  0.59702600  0.35758200  0.23866300  1
  O  O16  1  0.31705100  0.50635900  0.34204900  1
  O  O17  1  0.68294900  0.49364100  0.65795100  1
  O  O18  1  0.25694500  0.29678500  0.20420300  1
  O  O19  1  0.74305500  0.70321500  0.79579700  1
  O  O20  1  0.47304800  0.22025200  0.95180600  1
  O  O21  1  0.52695200  0.77974800  0.04819400  1
  O  O22  1  0.13378300  0.29097700  0.98979300  1
  O  O23  1  0.86621700  0.70902300  0.01020700  1
  O  O24  1  0.22861100  0.13484200  0.49034900  1
  O  O25  1  0.77138900  0.86515800  0.50965100  1
