# generated using pymatgen
data_YbCeS3
_symmetry_space_group_name_H-M   'P 1'
_cell_length_a   6.61200704
_cell_length_b   6.61200704
_cell_length_c   9.47857832
_cell_angle_alpha   90.00000000
_cell_angle_beta   90.00000000
_cell_angle_gamma   145.98928952
_symmetry_Int_Tables_number   1
_chemical_formula_structural   YbCeS3
_chemical_formula_sum   'Yb2 Ce2 S6'
_cell_volume   231.78845694
_cell_formula_units_Z   2
loop_
 _symmetry_equiv_pos_site_id
 _symmetry_equiv_pos_as_xyz
  1  'x, y, z'
loop_
 _atom_site_type_symbol
 _atom_site_label
 _atom_site_symmetry_multiplicity
 _atom_site_fract_x
 _atom_site_fract_y
 _atom_site_fract_z
 _atom_site_occupancy
  Yb  Yb0  1  0.00000000  0.00000000  0.50000000  1
  Yb  Yb1  1  0.00000000  0.00000000  0.00000000  1
  Ce  Ce2  1  0.74719869  0.25280131  0.25000000  1
  Ce  Ce3  1  0.25280131  0.74719869  0.75000000  1
  S  S4  1  0.64070631  0.35929369  0.56337586  1
  S  S5  1  0.64070631  0.35929369  0.93662414  1
  S  S6  1  0.35929369  0.64070631  0.06337586  1
  S  S7  1  0.35929369  0.64070631  0.43662414  1
  S  S8  1  0.08617562  0.91382438  0.25000000  1
  S  S9  1  0.91382438  0.08617562  0.75000000  1
