# generated using pymatgen
data_Th2Si3Os
_symmetry_space_group_name_H-M   'P 1'
_cell_length_a   7.76240470
_cell_length_b   7.76240470
_cell_length_c   7.76240470
_cell_angle_alpha   149.47697775
_cell_angle_beta   148.37138746
_cell_angle_gamma   44.52943161
_symmetry_Int_Tables_number   1
_chemical_formula_structural   Th2Si3Os
_chemical_formula_sum   'Th2 Si3 Os1'
_cell_volume   124.20097004
_cell_formula_units_Z   1
loop_
 _symmetry_equiv_pos_site_id
 _symmetry_equiv_pos_as_xyz
  1  'x, y, z'
loop_
 _atom_site_type_symbol
 _atom_site_label
 _atom_site_symmetry_multiplicity
 _atom_site_fract_x
 _atom_site_fract_y
 _atom_site_fract_z
 _atom_site_occupancy
  Th  Th0  1  0.74772532  0.24772532  0.50000000  1
  Th  Th1  1  0.00379862  0.00379862  0.00000000  1
  Si  Si2  1  0.58339503  0.58339503  -0.00000000  1
  Si  Si3  1  0.33067299  0.83067299  0.50000000  1
  Si  Si4  1  0.41809342  0.41809342  0.00000000  1
  Os  Os5  1  0.16631262  0.66631262  0.50000000  1
