# generated using pymatgen
data_KPd2O3
_symmetry_space_group_name_H-M   'P 1'
_cell_length_a   6.13578735
_cell_length_b   6.13578735
_cell_length_c   7.06898751
_cell_angle_alpha   64.27874005
_cell_angle_beta   64.27874005
_cell_angle_gamma   60.00000976
_symmetry_Int_Tables_number   1
_chemical_formula_structural   KPd2O3
_chemical_formula_sum   'K2 Pd4 O6'
_cell_volume   199.44843140
_cell_formula_units_Z   2
loop_
 _symmetry_equiv_pos_site_id
 _symmetry_equiv_pos_as_xyz
  1  'x, y, z'
loop_
 _atom_site_type_symbol
 _atom_site_label
 _atom_site_symmetry_multiplicity
 _atom_site_fract_x
 _atom_site_fract_y
 _atom_site_fract_z
 _atom_site_occupancy
  K  K0  1  0.17047414  0.17047414  0.48857858  1
  K  K1  1  0.82952586  0.82952586  0.51142142  1
  Pd  Pd2  1  0.50000000  -0.00000000  -0.00000000  1
  Pd  Pd3  1  0.00000000  0.50000000  -0.00000000  1
  Pd  Pd4  1  0.50000000  0.50000000  -0.00000000  1
  Pd  Pd5  1  0.00000000  -0.00000000  -0.00000000  1
  O  O6  1  0.61182690  0.11210942  0.16395526  1
  O  O7  1  0.11210942  0.11210942  0.16395526  1
  O  O8  1  0.11210942  0.61182690  0.16395526  1
  O  O9  1  0.38817310  0.88789058  0.83604474  1
  O  O10  1  0.88789058  0.88789058  0.83604474  1
  O  O11  1  0.88789058  0.38817310  0.83604474  1
