# generated using pymatgen
data_HfZrFe4
_symmetry_space_group_name_H-M   'P 1'
_cell_length_a   4.98955962
_cell_length_b   4.98927295
_cell_length_c   4.98955962
_cell_angle_alpha   90.00000000
_cell_angle_beta   60.00000000
_cell_angle_gamma   120.00190070
_symmetry_Int_Tables_number   1
_chemical_formula_structural   HfZrFe4
_chemical_formula_sum   'Hf1 Zr1 Fe4'
_cell_volume   87.82824812
_cell_formula_units_Z   1
loop_
 _symmetry_equiv_pos_site_id
 _symmetry_equiv_pos_as_xyz
  1  'x, y, z'
loop_
 _atom_site_type_symbol
 _atom_site_label
 _atom_site_symmetry_multiplicity
 _atom_site_fract_x
 _atom_site_fract_y
 _atom_site_fract_z
 _atom_site_occupancy
  Hf  Hf0  1  0.49999556  0.74999383  0.75000172  1
  Zr  Zr1  1  0.00000709  0.00001113  0.99999596  1
  Fe  Fe2  1  0.75035395  0.37517646  0.87446755  1
  Fe  Fe3  1  0.24964402  0.37517646  0.37517849  1
  Fe  Fe4  1  0.24964443  0.87446564  0.37517879  1
  Fe  Fe5  1  0.75035395  0.37517646  0.37517849  1
