# generated using pymatgen
data_ThRu
_symmetry_space_group_name_H-M   'P 1'
_cell_length_a   3.85903828
_cell_length_b   3.95664789
_cell_length_c   6.16286031
_cell_angle_alpha   90.00000000
_cell_angle_beta   108.24543679
_cell_angle_gamma   90.00000000
_symmetry_Int_Tables_number   1
_chemical_formula_structural   ThRu
_chemical_formula_sum   'Th2 Ru2'
_cell_volume   89.36886776
_cell_formula_units_Z   2
loop_
 _symmetry_equiv_pos_site_id
 _symmetry_equiv_pos_as_xyz
  1  'x, y, z'
loop_
 _atom_site_type_symbol
 _atom_site_label
 _atom_site_symmetry_multiplicity
 _atom_site_fract_x
 _atom_site_fract_y
 _atom_site_fract_z
 _atom_site_occupancy
  Th  Th0  1  0.13618573  0.75000000  0.27236945  1
  Th  Th1  1  0.86381427  0.25000000  0.72763055  1
  Ru  Ru2  1  0.40721664  0.75000000  0.81443229  1
  Ru  Ru3  1  0.59278336  0.25000000  0.18556771  1
