# generated using pymatgen
data_LaMgMnFeO6
_symmetry_space_group_name_H-M   'P 1'
_cell_length_a   5.33904471
_cell_length_b   7.62388446
_cell_length_c   5.48240000
_cell_angle_alpha   89.99932728
_cell_angle_beta   90.00014881
_cell_angle_gamma   90.17617603
_symmetry_Int_Tables_number   1
_chemical_formula_structural   LaMgMnFeO6
_chemical_formula_sum   'La2 Mg2 Mn2 Fe2 O12'
_cell_volume   223.15597994
_cell_formula_units_Z   2
loop_
 _symmetry_equiv_pos_site_id
 _symmetry_equiv_pos_as_xyz
  1  'x, y, z'
loop_
 _atom_site_type_symbol
 _atom_site_label
 _atom_site_symmetry_multiplicity
 _atom_site_fract_x
 _atom_site_fract_y
 _atom_site_fract_z
 _atom_site_occupancy
  La  La0  1  0.99233800  0.25028900  0.03299800  1
  La  La1  1  0.49232900  0.75030000  0.46700500  1
  Mg  Mg2  1  0.52669800  0.25085500  0.55606200  1
  Mg  Mg3  1  0.02670300  0.75085100  0.94394500  1
  Mn  Mn4  1  0.49937400  0.99870700  0.99791000  1
  Mn  Mn5  1  0.99937900  0.49870500  0.50208700  1
  Fe  Fe6  1  0.00065200  0.00290000  0.49911900  1
  Fe  Fe7  1  0.50067400  0.50290600  0.00087400  1
  O  O8  1  0.62808000  0.75756700  0.01928600  1
  O  O9  1  0.12808600  0.25756600  0.48071200  1
  O  O10  1  0.20014200  0.94285400  0.19467400  1
  O  O11  1  0.70014500  0.44284600  0.30532700  1
  O  O12  1  0.18825500  0.55785700  0.20391500  1
  O  O13  1  0.68825100  0.05784900  0.29608600  1
  O  O14  1  0.92283700  0.74256400  0.54517700  1
  O  O15  1  0.42283300  0.24256300  0.95482300  1
  O  O16  1  0.26603900  0.55083400  0.72775500  1
  O  O17  1  0.76603900  0.05083700  0.77224400  1
  O  O18  1  0.27557000  0.94557400  0.73369900  1
  O  O19  1  0.77557300  0.44557000  0.76630400  1
