# generated using pymatgen
data_Na3CaMg3AlF14
_symmetry_space_group_name_H-M   'P 1'
_cell_length_a   7.15535392
_cell_length_b   7.15535392
_cell_length_c   7.15535382
_cell_angle_alpha   59.77727869
_cell_angle_beta   59.77727869
_cell_angle_gamma   59.77728470
_symmetry_Int_Tables_number   1
_chemical_formula_structural   Na3CaMg3AlF14
_chemical_formula_sum   'Na3 Ca1 Mg3 Al1 F14'
_cell_volume   257.73696913
_cell_formula_units_Z   1
loop_
 _symmetry_equiv_pos_site_id
 _symmetry_equiv_pos_as_xyz
  1  'x, y, z'
loop_
 _atom_site_type_symbol
 _atom_site_label
 _atom_site_symmetry_multiplicity
 _atom_site_fract_x
 _atom_site_fract_y
 _atom_site_fract_z
 _atom_site_occupancy
  Na  Na0  1  -0.00000000  -0.00000000  0.50000000  1
  Na  Na1  1  0.50000000  -0.00000000  0.00000000  1
  Na  Na2  1  -0.00000000  0.50000000  0.00000000  1
  Ca  Ca3  1  -0.00000000  -0.00000000  0.00000000  1
  Mg  Mg4  1  0.50000000  -0.00000000  0.50000000  1
  Mg  Mg5  1  -0.00000000  0.50000000  0.50000000  1
  Mg  Mg6  1  0.50000000  0.50000000  0.00000000  1
  Al  Al7  1  0.50000000  0.50000000  0.50000000  1
  F  F8  1  0.83101103  0.42110474  0.83101103  1
  F  F9  1  0.42110474  0.83101103  0.83101103  1
  F  F10  1  0.83101103  0.83101103  0.42110474  1
  F  F11  1  0.16898897  0.57889526  0.16898897  1
  F  F12  1  0.57889526  0.16898897  0.16898897  1
  F  F13  1  0.16898897  0.16898897  0.57889526  1
  F  F14  1  0.56276456  0.20061969  0.56276456  1
  F  F15  1  0.20061969  0.56276456  0.56276456  1
  F  F16  1  0.56276456  0.56276456  0.20061969  1
  F  F17  1  0.43723544  0.79938031  0.43723544  1
  F  F18  1  0.79938031  0.43723544  0.43723544  1
  F  F19  1  0.43723544  0.43723544  0.79938031  1
  F  F20  1  0.87452354  0.87452354  0.87452354  1
  F  F21  1  0.12547646  0.12547646  0.12547646  1
