# generated using pymatgen
data_ErAsPd
_symmetry_space_group_name_H-M   'P 1'
_cell_length_a   4.07650469
_cell_length_b   6.99845687
_cell_length_c   7.88228721
_cell_angle_alpha   90.00000000
_cell_angle_beta   90.00000000
_cell_angle_gamma   90.00000000
_symmetry_Int_Tables_number   1
_chemical_formula_structural   ErAsPd
_chemical_formula_sum   'Er4 As4 Pd4'
_cell_volume   224.87568132
_cell_formula_units_Z   4
loop_
 _symmetry_equiv_pos_site_id
 _symmetry_equiv_pos_as_xyz
  1  'x, y, z'
loop_
 _atom_site_type_symbol
 _atom_site_label
 _atom_site_symmetry_multiplicity
 _atom_site_fract_x
 _atom_site_fract_y
 _atom_site_fract_z
 _atom_site_occupancy
  Er  Er0  1  0.25000000  0.53299957  0.80800003  1
  Er  Er1  1  0.75000000  0.46700043  0.19199997  1
  Er  Er2  1  0.25000000  0.03299957  0.69199997  1
  Er  Er3  1  0.75000000  0.96700043  0.30800003  1
  As  As4  1  0.25000000  0.74514358  0.12069734  1
  As  As5  1  0.75000000  0.25485642  0.87930266  1
  As  As6  1  0.25000000  0.24514358  0.37930266  1
  As  As7  1  0.75000000  0.75485642  0.62069734  1
  Pd  Pd8  1  0.75000000  0.35708533  0.56325695  1
  Pd  Pd9  1  0.25000000  0.64291467  0.43674305  1
  Pd  Pd10  1  0.75000000  0.85708533  0.93674305  1
  Pd  Pd11  1  0.25000000  0.14291467  0.06325695  1
