# generated using pymatgen
data_SrSn3
_symmetry_space_group_name_H-M   'P 1'
_cell_length_a   7.02513853
_cell_length_b   7.02513774
_cell_length_c   5.60248032
_cell_angle_alpha   90.00000000
_cell_angle_beta   90.00000000
_cell_angle_gamma   119.99999878
_symmetry_Int_Tables_number   1
_chemical_formula_structural   SrSn3
_chemical_formula_sum   'Sr2 Sn6'
_cell_volume   239.45323747
_cell_formula_units_Z   2
loop_
 _symmetry_equiv_pos_site_id
 _symmetry_equiv_pos_as_xyz
  1  'x, y, z'
loop_
 _atom_site_type_symbol
 _atom_site_label
 _atom_site_symmetry_multiplicity
 _atom_site_fract_x
 _atom_site_fract_y
 _atom_site_fract_z
 _atom_site_occupancy
  Sr  Sr0  1  0.33333400  0.66666700  0.75000000  1
  Sr  Sr1  1  0.66666700  0.33333400  0.24999900  1
  Sn  Sn2  1  0.14549993  0.29099986  0.24999900  1
  Sn  Sn3  1  0.70900014  0.85450007  0.24999900  1
  Sn  Sn4  1  0.14549993  0.85450007  0.24999900  1
  Sn  Sn5  1  0.85450007  0.70899914  0.75000000  1
  Sn  Sn6  1  0.29099886  0.14550093  0.75000000  1
  Sn  Sn7  1  0.85450107  0.14550093  0.75000000  1
