# generated using pymatgen
data_LuAlCu
_symmetry_space_group_name_H-M   'P 1'
_cell_length_a   5.25447323
_cell_length_b   5.25447323
_cell_length_c   5.25447323
_cell_angle_alpha   119.37952288
_cell_angle_beta   118.77449667
_cell_angle_gamma   91.60701791
_symmetry_Int_Tables_number   1
_chemical_formula_structural   LuAlCu
_chemical_formula_sum   'Lu2 Al2 Cu2'
_cell_volume   103.96569789
_cell_formula_units_Z   2
loop_
 _symmetry_equiv_pos_site_id
 _symmetry_equiv_pos_as_xyz
  1  'x, y, z'
loop_
 _atom_site_type_symbol
 _atom_site_label
 _atom_site_symmetry_multiplicity
 _atom_site_fract_x
 _atom_site_fract_y
 _atom_site_fract_z
 _atom_site_occupancy
  Lu  Lu0  1  0.12754653  0.87754653  0.25000000  1
  Lu  Lu1  1  0.87245347  0.12245347  0.75000000  1
  Al  Al2  1  -0.00000000  0.50000000  0.50000000  1
  Al  Al3  1  0.50000000  0.50000000  0.00000000  1
  Cu  Cu4  1  0.50000000  -0.00000000  0.00000000  1
  Cu  Cu5  1  0.50000000  0.50000000  0.50000000  1
