# generated using pymatgen
data_Ba2CdAs2
_symmetry_space_group_name_H-M   'P 1'
_cell_length_a   9.08838161
_cell_length_b   9.08838161
_cell_length_c   8.16981517
_cell_angle_alpha   90.00000000
_cell_angle_beta   90.00000000
_cell_angle_gamma   150.48808801
_symmetry_Int_Tables_number   1
_chemical_formula_structural   Ba2CdAs2
_chemical_formula_sum   'Ba4 Cd2 As4'
_cell_volume   332.41737358
_cell_formula_units_Z   2
loop_
 _symmetry_equiv_pos_site_id
 _symmetry_equiv_pos_as_xyz
  1  'x, y, z'
loop_
 _atom_site_type_symbol
 _atom_site_label
 _atom_site_symmetry_multiplicity
 _atom_site_fract_x
 _atom_site_fract_y
 _atom_site_fract_z
 _atom_site_occupancy
  Ba  Ba0  1  0.29573334  0.70426666  0.89183319  1
  Ba  Ba1  1  0.70426666  0.29573334  0.39183319  1
  Ba  Ba2  1  0.46182420  0.53817580  0.23049561  1
  Ba  Ba3  1  0.53817580  0.46182420  0.73049561  1
  Cd  Cd4  1  0.09421600  0.90578400  0.08095741  1
  Cd  Cd5  1  0.90578400  0.09421600  0.58095741  1
  As  As6  1  0.06012705  0.93987295  0.42924749  1
  As  As7  1  0.93987295  0.06012705  0.92924749  1
  As  As8  1  0.32914412  0.67085588  0.50148729  1
  As  As9  1  0.67085588  0.32914412  0.00148729  1
