# generated using pymatgen
data_DyZnPd
_symmetry_space_group_name_H-M   'P 1'
_cell_length_a   7.21810282
_cell_length_b   7.21810282
_cell_length_c   3.85527840
_cell_angle_alpha   90.00000000
_cell_angle_beta   90.00000000
_cell_angle_gamma   119.99999943
_symmetry_Int_Tables_number   1
_chemical_formula_structural   DyZnPd
_chemical_formula_sum   'Dy3 Zn3 Pd3'
_cell_volume   173.95323408
_cell_formula_units_Z   3
loop_
 _symmetry_equiv_pos_site_id
 _symmetry_equiv_pos_as_xyz
  1  'x, y, z'
loop_
 _atom_site_type_symbol
 _atom_site_label
 _atom_site_symmetry_multiplicity
 _atom_site_fract_x
 _atom_site_fract_y
 _atom_site_fract_z
 _atom_site_occupancy
  Dy  Dy0  1  0.40482049  0.40482049  0.50000000  1
  Dy  Dy1  1  0.59517951  0.00000000  0.50000000  1
  Dy  Dy2  1  0.00000000  0.59517951  0.50000000  1
  Zn  Zn3  1  0.75029531  0.75029531  0.00000000  1
  Zn  Zn4  1  0.24970469  -0.00000000  -0.00000000  1
  Zn  Zn5  1  -0.00000000  0.24970469  0.00000000  1
  Pd  Pd6  1  0.66666700  0.33333300  -0.00000000  1
  Pd  Pd7  1  0.33333300  0.66666700  0.00000000  1
  Pd  Pd8  1  0.00000000  -0.00000000  0.50000000  1
