# generated using pymatgen
data_NdCdPd
_symmetry_space_group_name_H-M   'P 1'
_cell_length_a   7.69722178
_cell_length_b   7.69722178
_cell_length_c   4.03005451
_cell_angle_alpha   90.00000000
_cell_angle_beta   90.00000000
_cell_angle_gamma   120.00000033
_symmetry_Int_Tables_number   1
_chemical_formula_structural   NdCdPd
_chemical_formula_sum   'Nd3 Cd3 Pd3'
_cell_volume   206.78048547
_cell_formula_units_Z   3
loop_
 _symmetry_equiv_pos_site_id
 _symmetry_equiv_pos_as_xyz
  1  'x, y, z'
loop_
 _atom_site_type_symbol
 _atom_site_label
 _atom_site_symmetry_multiplicity
 _atom_site_fract_x
 _atom_site_fract_y
 _atom_site_fract_z
 _atom_site_occupancy
  Nd  Nd0  1  0.59327291  1.00000000  -0.00000000  1
  Nd  Nd1  1  1.00000000  0.59327291  -0.00000000  1
  Nd  Nd2  1  0.40672709  0.40672709  -0.00000000  1
  Cd  Cd3  1  0.25165560  -0.00000000  0.50000000  1
  Cd  Cd4  1  0.00000000  0.25165560  0.50000000  1
  Cd  Cd5  1  0.74834440  0.74834440  0.50000000  1
  Pd  Pd6  1  0.33333300  0.66666700  0.50000000  1
  Pd  Pd7  1  0.66666700  0.33333300  0.50000000  1
  Pd  Pd8  1  0.00000000  0.00000000  0.00000000  1
