# generated using pymatgen
data_Sr(FeSb3)4
_symmetry_space_group_name_H-M   'P 1'
_cell_length_a   7.94883680
_cell_length_b   7.94877370
_cell_length_c   7.94881354
_cell_angle_alpha   109.47098484
_cell_angle_beta   109.47263577
_cell_angle_gamma   109.47076773
_symmetry_Int_Tables_number   1
_chemical_formula_structural   Sr(FeSb3)4
_chemical_formula_sum   'Sr1 Fe4 Sb12'
_cell_volume   386.61636929
_cell_formula_units_Z   1
loop_
 _symmetry_equiv_pos_site_id
 _symmetry_equiv_pos_as_xyz
  1  'x, y, z'
loop_
 _atom_site_type_symbol
 _atom_site_label
 _atom_site_symmetry_multiplicity
 _atom_site_fract_x
 _atom_site_fract_y
 _atom_site_fract_z
 _atom_site_occupancy
  Sr  Sr0  1  0.00000000  -0.00000000  0.00000000  1
  Fe  Fe1  1  0.00000000  -0.00000000  0.50000000  1
  Fe  Fe2  1  0.50000000  -0.00000000  0.00000000  1
  Fe  Fe3  1  0.00000000  0.50000000  0.00000000  1
  Fe  Fe4  1  0.50000000  0.50000000  0.50000000  1
  Sb  Sb5  1  0.33666486  0.17525641  0.83862621  1
  Sb  Sb6  1  0.66333514  0.82474359  0.16137379  1
  Sb  Sb7  1  0.66341315  0.50199238  0.83861515  1
  Sb  Sb8  1  0.33658685  0.49800762  0.16138485  1
  Sb  Sb9  1  0.17526165  0.83860930  0.33664582  1
  Sb  Sb10  1  0.82473835  0.16139070  0.66335418  1
  Sb  Sb11  1  0.50198993  0.83862219  0.66341300  1
  Sb  Sb12  1  0.49801007  0.16137781  0.33658700  1
  Sb  Sb13  1  0.83859998  0.33661885  0.17520967  1
  Sb  Sb14  1  0.16140002  0.66338115  0.82479033  1
  Sb  Sb15  1  0.83858546  0.66333681  0.50196966  1
  Sb  Sb16  1  0.16141454  0.33666319  0.49803034  1
