# generated using pymatgen
data_PrNd
_symmetry_space_group_name_H-M   'P 1'
_cell_length_a   3.72962236
_cell_length_b   3.72963754
_cell_length_c   11.94548544
_cell_angle_alpha   90.00000000
_cell_angle_beta   90.00000000
_cell_angle_gamma   59.99989400
_symmetry_Int_Tables_number   1
_chemical_formula_structural   PrNd
_chemical_formula_sum   'Pr2 Nd2'
_cell_volume   143.90154556
_cell_formula_units_Z   2
loop_
 _symmetry_equiv_pos_site_id
 _symmetry_equiv_pos_as_xyz
  1  'x, y, z'
loop_
 _atom_site_type_symbol
 _atom_site_label
 _atom_site_symmetry_multiplicity
 _atom_site_fract_x
 _atom_site_fract_y
 _atom_site_fract_z
 _atom_site_occupancy
  Pr  Pr0  1  0.00000013  -0.00000006  0.50003094  1
  Pr  Pr1  1  0.00000013  -0.00000006  0.99996906  1
  Nd  Nd2  1  0.33344385  0.33327658  0.75000000  1
  Nd  Nd3  1  0.66655590  0.66672355  0.25000000  1
