# generated using pymatgen
data_Co2GeO4
_symmetry_space_group_name_H-M   'P 1'
_cell_length_a   5.87367999
_cell_length_b   5.87284232
_cell_length_c   5.87251371
_cell_angle_alpha   119.97360057
_cell_angle_beta   120.09713377
_cell_angle_gamma   89.92771835
_symmetry_Int_Tables_number   1
_chemical_formula_structural   Co2GeO4
_chemical_formula_sum   'Co4 Ge2 O8'
_cell_volume   143.17804278
_cell_formula_units_Z   2
loop_
 _symmetry_equiv_pos_site_id
 _symmetry_equiv_pos_as_xyz
  1  'x, y, z'
loop_
 _atom_site_type_symbol
 _atom_site_label
 _atom_site_symmetry_multiplicity
 _atom_site_fract_x
 _atom_site_fract_y
 _atom_site_fract_z
 _atom_site_occupancy
  Co  Co0  1  0.99999948  0.99999321  0.99999205  1
  Co  Co1  1  0.49999945  0.99998915  0.49998810  1
  Co  Co2  1  0.50000731  0.49998644  0.49998785  1
  Co  Co3  1  0.49999200  0.99998099  0.99997935  1
  Ge  Ge4  1  0.12522904  0.37602572  0.74922189  1
  Ge  Ge5  1  0.87477211  0.62397670  0.25078074  1
  O  O6  1  0.74966752  0.25118146  0.00089690  1
  O  O7  1  0.24753722  0.25156238  0.99580808  1
  O  O8  1  0.25075287  0.25175590  0.50188279  1
  O  O9  1  0.75246129  0.74845063  0.00420590  1
  O  O10  1  0.75333634  0.25315434  0.49982898  1
  O  O11  1  0.24666496  0.74685916  0.50018511  1
  O  O12  1  0.74924781  0.74825450  0.49812771  1
  O  O13  1  0.25033262  0.74882942  0.99911454  1
