# generated using pymatgen
data_La2Al7Cu
_symmetry_space_group_name_H-M   'P 1'
_cell_length_a   4.32233120
_cell_length_b   4.32233120
_cell_length_c   10.87968146
_cell_angle_alpha   90.00000000
_cell_angle_beta   90.00000000
_cell_angle_gamma   90.00000000
_symmetry_Int_Tables_number   1
_chemical_formula_structural   La2Al7Cu
_chemical_formula_sum   'La2 Al7 Cu1'
_cell_volume   203.26016025
_cell_formula_units_Z   1
loop_
 _symmetry_equiv_pos_site_id
 _symmetry_equiv_pos_as_xyz
  1  'x, y, z'
loop_
 _atom_site_type_symbol
 _atom_site_label
 _atom_site_symmetry_multiplicity
 _atom_site_fract_x
 _atom_site_fract_y
 _atom_site_fract_z
 _atom_site_occupancy
  La  La0  1  0.00000000  0.00000000  0.99919772  1
  La  La1  1  0.50000000  0.50000000  0.49537925  1
  Al  Al2  1  0.00000000  0.50000000  0.23708932  1
  Al  Al3  1  0.50000000  0.00000000  0.75455254  1
  Al  Al4  1  0.50000000  0.00000000  0.23708932  1
  Al  Al5  1  0.00000000  0.50000000  0.75455254  1
  Al  Al6  1  0.00000000  0.00000000  0.61515095  1
  Al  Al7  1  -0.00000000  0.00000000  0.38071431  1
  Al  Al8  1  0.50000000  0.50000000  0.90191964  1
  Cu  Cu9  1  0.50000000  0.50000000  0.12435242  1
