# generated using pymatgen
data_SmAlPt
_symmetry_space_group_name_H-M   'P 1'
_cell_length_a   4.44506569
_cell_length_b   7.07935784
_cell_length_c   7.76355809
_cell_angle_alpha   90.00000000
_cell_angle_beta   90.00000000
_cell_angle_gamma   90.00000000
_symmetry_Int_Tables_number   1
_chemical_formula_structural   SmAlPt
_chemical_formula_sum   'Sm4 Al4 Pt4'
_cell_volume   244.30528131
_cell_formula_units_Z   4
loop_
 _symmetry_equiv_pos_site_id
 _symmetry_equiv_pos_as_xyz
  1  'x, y, z'
loop_
 _atom_site_type_symbol
 _atom_site_label
 _atom_site_symmetry_multiplicity
 _atom_site_fract_x
 _atom_site_fract_y
 _atom_site_fract_z
 _atom_site_occupancy
  Sm  Sm0  1  0.75000000  0.47177267  0.81765366  1
  Sm  Sm1  1  0.75000000  0.97177267  0.68234634  1
  Sm  Sm2  1  0.25000000  0.52822733  0.18234634  1
  Sm  Sm3  1  0.25000000  0.02822733  0.31765366  1
  Al  Al4  1  0.75000000  0.35586395  0.43337199  1
  Al  Al5  1  0.75000000  0.85586395  0.06662801  1
  Al  Al6  1  0.25000000  0.64413605  0.56662801  1
  Al  Al7  1  0.25000000  0.14413605  0.93337199  1
  Pt  Pt8  1  0.75000000  0.22032331  0.11229458  1
  Pt  Pt9  1  0.75000000  0.72032331  0.38770542  1
  Pt  Pt10  1  0.25000000  0.77967669  0.88770542  1
  Pt  Pt11  1  0.25000000  0.27967669  0.61229458  1
