# generated using pymatgen
data_Hf4CuSi4
_symmetry_space_group_name_H-M   'P 1'
_cell_length_a   5.18438197
_cell_length_b   5.18438197
_cell_length_c   8.61742311
_cell_angle_alpha   71.61546855
_cell_angle_beta   71.61546855
_cell_angle_gamma   42.20372171
_symmetry_Int_Tables_number   1
_chemical_formula_structural   Hf4CuSi4
_chemical_formula_sum   'Hf4 Cu1 Si4'
_cell_volume   146.43261798
_cell_formula_units_Z   1
loop_
 _symmetry_equiv_pos_site_id
 _symmetry_equiv_pos_as_xyz
  1  'x, y, z'
loop_
 _atom_site_type_symbol
 _atom_site_label
 _atom_site_symmetry_multiplicity
 _atom_site_fract_x
 _atom_site_fract_y
 _atom_site_fract_z
 _atom_site_occupancy
  Hf  Hf0  1  0.10819823  0.10819823  0.61999284  1
  Hf  Hf1  1  0.89180177  0.89180177  0.38000716  1
  Hf  Hf2  1  0.75427326  0.75427326  0.84214469  1
  Hf  Hf3  1  0.24572674  0.24572674  0.15785531  1
  Cu  Cu4  1  -0.00000000  -0.00000000  0.00000000  1
  Si  Si5  1  0.38561775  0.38561775  0.61348176  1
  Si  Si6  1  0.61438225  0.61438225  0.38651824  1
  Si  Si7  1  0.46253898  0.46253898  0.85102180  1
  Si  Si8  1  0.53746102  0.53746102  0.14897820  1
