# generated using pymatgen
data_YEr
_symmetry_space_group_name_H-M   'P 1'
_cell_length_a   3.59884474
_cell_length_b   3.59884474
_cell_length_c   5.78266011
_cell_angle_alpha   90.00000000
_cell_angle_beta   90.00000000
_cell_angle_gamma   120.00003153
_symmetry_Int_Tables_number   1
_chemical_formula_structural   YEr
_chemical_formula_sum   'Y1 Er1'
_cell_volume   64.86111059
_cell_formula_units_Z   1
loop_
 _symmetry_equiv_pos_site_id
 _symmetry_equiv_pos_as_xyz
  1  'x, y, z'
loop_
 _atom_site_type_symbol
 _atom_site_label
 _atom_site_symmetry_multiplicity
 _atom_site_fract_x
 _atom_site_fract_y
 _atom_site_fract_z
 _atom_site_occupancy
  Y  Y0  1  0.00000007  -0.00000007  -0.00000000  1
  Er  Er1  1  0.33333293  0.66666707  0.50000000  1
