# generated using pymatgen
data_ErCrO3
_symmetry_space_group_name_H-M   'P 1'
_cell_length_a   5.18848926
_cell_length_b   5.52090784
_cell_length_c   7.50302878
_cell_angle_alpha   90.00000000
_cell_angle_beta   90.00000000
_cell_angle_gamma   90.00000000
_symmetry_Int_Tables_number   1
_chemical_formula_structural   ErCrO3
_chemical_formula_sum   'Er4 Cr4 O12'
_cell_volume   214.92554267
_cell_formula_units_Z   4
loop_
 _symmetry_equiv_pos_site_id
 _symmetry_equiv_pos_as_xyz
  1  'x, y, z'
loop_
 _atom_site_type_symbol
 _atom_site_label
 _atom_site_symmetry_multiplicity
 _atom_site_fract_x
 _atom_site_fract_y
 _atom_site_fract_z
 _atom_site_occupancy
  Er  Er0  1  0.02085563  0.92873173  0.75000000  1
  Er  Er1  1  0.52085563  0.57126827  0.25000000  1
  Er  Er2  1  0.47914437  0.42873173  0.75000000  1
  Er  Er3  1  0.97914437  0.07126827  0.25000000  1
  Cr  Cr4  1  0.50000000  0.00000000  0.50000000  1
  Cr  Cr5  1  -0.00000000  0.50000000  0.50000000  1
  Cr  Cr6  1  -0.00000000  0.50000000  0.00000000  1
  Cr  Cr7  1  0.50000000  0.00000000  0.00000000  1
  O  O8  1  0.69031152  0.30420032  0.44140513  1
  O  O9  1  0.19031152  0.19579968  0.55859487  1
  O  O10  1  0.80968848  0.80420032  0.05859487  1
  O  O11  1  0.30968848  0.69579968  0.94140513  1
  O  O12  1  0.30968848  0.69579968  0.55859487  1
  O  O13  1  0.80968848  0.80420032  0.44140513  1
  O  O14  1  0.19031152  0.19579968  0.94140513  1
  O  O15  1  0.69031152  0.30420032  0.05859487  1
  O  O16  1  0.11533757  0.45904070  0.25000000  1
  O  O17  1  0.61533757  0.04095930  0.75000000  1
  O  O18  1  0.38466243  0.95904070  0.25000000  1
  O  O19  1  0.88466243  0.54095930  0.75000000  1
