# generated using pymatgen
data_GdBC
_symmetry_space_group_name_H-M   'P 1'
_cell_length_a   3.40485400
_cell_length_b   3.54794000
_cell_length_c   8.26672273
_cell_angle_alpha   90.00000000
_cell_angle_beta   101.88437631
_cell_angle_gamma   90.00000000
_symmetry_Int_Tables_number   1
_chemical_formula_structural   GdBC
_chemical_formula_sum   'Gd2 B2 C2'
_cell_volume   97.72324726
_cell_formula_units_Z   2
loop_
 _symmetry_equiv_pos_site_id
 _symmetry_equiv_pos_as_xyz
  1  'x, y, z'
loop_
 _atom_site_type_symbol
 _atom_site_label
 _atom_site_symmetry_multiplicity
 _atom_site_fract_x
 _atom_site_fract_y
 _atom_site_fract_z
 _atom_site_occupancy
  Gd  Gd0  1  0.13624400  0.00000000  0.27248800  1
  Gd  Gd1  1  0.86375600  0.00000000  0.72751200  1
  B  B2  1  0.71963900  0.50000000  0.43927800  1
  B  B3  1  0.28036100  0.50000000  0.56072200  1
  C  C4  1  0.62701600  0.50000000  0.25403200  1
  C  C5  1  0.37298400  0.50000000  0.74596800  1
