# generated using pymatgen
data_Nd2GaCo2
_symmetry_space_group_name_H-M   'P 1'
_cell_length_a   5.71020803
_cell_length_b   5.71020803
_cell_length_c   5.71020803
_cell_angle_alpha   135.71779382
_cell_angle_beta   127.31889017
_cell_angle_gamma   71.20638308
_symmetry_Int_Tables_number   1
_chemical_formula_structural   Nd2GaCo2
_chemical_formula_sum   'Nd2 Ga1 Co2'
_cell_volume   101.26306048
_cell_formula_units_Z   1
loop_
 _symmetry_equiv_pos_site_id
 _symmetry_equiv_pos_as_xyz
  1  'x, y, z'
loop_
 _atom_site_type_symbol
 _atom_site_label
 _atom_site_symmetry_multiplicity
 _atom_site_fract_x
 _atom_site_fract_y
 _atom_site_fract_z
 _atom_site_occupancy
  Nd  Nd0  1  0.31011777  0.81011777  0.50000000  1
  Nd  Nd1  1  0.68988223  0.18988223  0.50000000  1
  Ga  Ga2  1  0.00000000  0.00000000  0.00000000  1
  Co  Co3  1  0.73495754  0.50000000  0.23495754  1
  Co  Co4  1  0.26504246  0.50000000  0.76504246  1
