# generated using pymatgen
data_CeGaPd
_symmetry_space_group_name_H-M   'P 1'
_cell_length_a   4.58952823
_cell_length_b   7.14555525
_cell_length_c   7.67574166
_cell_angle_alpha   90.00429312
_cell_angle_beta   90.00029478
_cell_angle_gamma   89.99980609
_symmetry_Int_Tables_number   1
_chemical_formula_structural   CeGaPd
_chemical_formula_sum   'Ce4 Ga4 Pd4'
_cell_volume   251.72385572
_cell_formula_units_Z   4
loop_
 _symmetry_equiv_pos_site_id
 _symmetry_equiv_pos_as_xyz
  1  'x, y, z'
loop_
 _atom_site_type_symbol
 _atom_site_label
 _atom_site_symmetry_multiplicity
 _atom_site_fract_x
 _atom_site_fract_y
 _atom_site_fract_z
 _atom_site_occupancy
  Ce  Ce0  1  0.24999943  0.97507438  0.29951742  1
  Ce  Ce1  1  0.24999953  0.47506722  0.20050584  1
  Ce  Ce2  1  0.74999957  0.02487172  0.70046968  1
  Ce  Ce3  1  0.74999896  0.52489129  0.79947825  1
  Ga  Ga4  1  0.24999870  0.32746936  0.57976103  1
  Ga  Ga5  1  0.25000705  0.82750355  0.92026413  1
  Ga  Ga6  1  0.74999978  0.67252305  0.42018449  1
  Ga  Ga7  1  0.74999835  0.17252942  0.07983820  1
  Pd  Pd8  1  0.25000197  0.21403527  0.90797806  1
  Pd  Pd9  1  0.24999759  0.71402247  0.59203108  1
  Pd  Pd10  1  0.74999774  0.78601229  0.09199634  1
  Pd  Pd11  1  0.75000133  0.28599996  0.40797549  1
