# generated using pymatgen
data_NbCoAs
_symmetry_space_group_name_H-M   'P 1'
_cell_length_a   3.72539937
_cell_length_b   6.30286285
_cell_length_c   7.12481608
_cell_angle_alpha   90.00000000
_cell_angle_beta   90.00000000
_cell_angle_gamma   90.00000000
_symmetry_Int_Tables_number   1
_chemical_formula_structural   NbCoAs
_chemical_formula_sum   'Nb4 Co4 As4'
_cell_volume   167.29553563
_cell_formula_units_Z   4
loop_
 _symmetry_equiv_pos_site_id
 _symmetry_equiv_pos_as_xyz
  1  'x, y, z'
loop_
 _atom_site_type_symbol
 _atom_site_label
 _atom_site_symmetry_multiplicity
 _atom_site_fract_x
 _atom_site_fract_y
 _atom_site_fract_z
 _atom_site_occupancy
  Nb  Nb0  1  0.25000000  0.02347515  0.32983758  1
  Nb  Nb1  1  0.25000000  0.52341949  0.17016636  1
  Nb  Nb2  1  0.75000000  0.97658051  0.67016636  1
  Nb  Nb3  1  0.75000000  0.47652485  0.82983758  1
  Co  Co4  1  0.25000000  0.15055710  0.93606279  1
  Co  Co5  1  0.25000000  0.65052452  0.56393674  1
  Co  Co6  1  0.75000000  0.84947548  0.06393674  1
  Co  Co7  1  0.75000000  0.34944290  0.43606279  1
  As  As8  1  0.25000000  0.28170224  0.62139431  1
  As  As9  1  0.25000000  0.78173441  0.87860323  1
  As  As10  1  0.75000000  0.71826559  0.37860323  1
  As  As11  1  0.75000000  0.21829776  0.12139431  1
