# generated using pymatgen
data_NdAlPd2
_symmetry_space_group_name_H-M   'P 1'
_cell_length_a   5.84700398
_cell_length_b   7.02062707
_cell_length_c   7.53877099
_cell_angle_alpha   90.00000000
_cell_angle_beta   90.00008029
_cell_angle_gamma   90.00000000
_symmetry_Int_Tables_number   1
_chemical_formula_structural   NdAlPd2
_chemical_formula_sum   'Nd4 Al4 Pd8'
_cell_volume   309.46379312
_cell_formula_units_Z   4
loop_
 _symmetry_equiv_pos_site_id
 _symmetry_equiv_pos_as_xyz
  1  'x, y, z'
loop_
 _atom_site_type_symbol
 _atom_site_label
 _atom_site_symmetry_multiplicity
 _atom_site_fract_x
 _atom_site_fract_y
 _atom_site_fract_z
 _atom_site_occupancy
  Nd  Nd0  1  0.34626861  0.75000000  0.03301218  1
  Nd  Nd1  1  0.15373372  0.75000000  0.53308112  1
  Nd  Nd2  1  0.65373372  0.25000000  0.96691788  1
  Nd  Nd3  1  0.84626861  0.25000000  0.46698782  1
  Al  Al4  1  0.65425705  0.75000000  0.38119591  1
  Al  Al5  1  0.84574803  0.75000000  0.88118316  1
  Al  Al6  1  0.34574803  0.25000000  0.61881584  1
  Al  Al7  1  0.15425705  0.25000000  0.11880509  1
  Pd  Pd8  1  0.91256564  0.55278317  0.17648960  1
  Pd  Pd9  1  0.58742965  0.94720803  0.67652129  1
  Pd  Pd10  1  0.08742965  0.05279197  0.82347671  1
  Pd  Pd11  1  0.41256664  0.44721683  0.32351240  1
  Pd  Pd12  1  0.08743065  0.44720803  0.82347671  1
  Pd  Pd13  1  0.41256664  0.05278317  0.32351140  1
  Pd  Pd14  1  0.91256664  0.94721683  0.17648960  1
  Pd  Pd15  1  0.58742965  0.55279197  0.67652129  1
