# generated using pymatgen
data_La2Zn5Sn
_symmetry_space_group_name_H-M   'P 1'
_cell_length_a   8.66354084
_cell_length_b   8.66354084
_cell_length_c   9.10674771
_cell_angle_alpha   90.00000000
_cell_angle_beta   90.00000000
_cell_angle_gamma   149.61701675
_symmetry_Int_Tables_number   1
_chemical_formula_structural   La2Zn5Sn
_chemical_formula_sum   'La4 Zn10 Sn2'
_cell_volume   345.71142339
_cell_formula_units_Z   2
loop_
 _symmetry_equiv_pos_site_id
 _symmetry_equiv_pos_as_xyz
  1  'x, y, z'
loop_
 _atom_site_type_symbol
 _atom_site_label
 _atom_site_symmetry_multiplicity
 _atom_site_fract_x
 _atom_site_fract_y
 _atom_site_fract_z
 _atom_site_occupancy
  La  La0  1  0.20771058  0.79228942  0.25000000  1
  La  La1  1  0.79228942  0.20771058  0.75000000  1
  La  La2  1  0.00000000  -0.00000000  0.50000000  1
  La  La3  1  0.00000000  -0.00000000  -0.00000000  1
  Zn  Zn4  1  0.81513737  0.18486263  0.39022579  1
  Zn  Zn5  1  0.18486263  0.81513737  0.60977421  1
  Zn  Zn6  1  0.81513737  0.18486263  0.10977421  1
  Zn  Zn7  1  0.18486263  0.81513737  0.89022579  1
  Zn  Zn8  1  0.65661171  0.34338829  0.48682455  1
  Zn  Zn9  1  0.34338829  0.65661171  0.51317545  1
  Zn  Zn10  1  0.65661171  0.34338829  0.01317545  1
  Zn  Zn11  1  0.34338829  0.65661171  0.98682455  1
  Zn  Zn12  1  0.39677435  0.60322565  0.25000000  1
  Zn  Zn13  1  0.60322565  0.39677435  0.75000000  1
  Sn  Sn14  1  0.55691514  0.44308486  0.25000000  1
  Sn  Sn15  1  0.44308486  0.55691514  0.75000000  1
