# generated using pymatgen
data_DyGePd2
_symmetry_space_group_name_H-M   'P 1'
_cell_length_a   5.58338839
_cell_length_b   7.06809493
_cell_length_c   7.35870001
_cell_angle_alpha   90.00000000
_cell_angle_beta   90.00000000
_cell_angle_gamma   90.00000000
_symmetry_Int_Tables_number   1
_chemical_formula_structural   DyGePd2
_chemical_formula_sum   'Dy4 Ge4 Pd8'
_cell_volume   290.40314240
_cell_formula_units_Z   4
loop_
 _symmetry_equiv_pos_site_id
 _symmetry_equiv_pos_as_xyz
  1  'x, y, z'
loop_
 _atom_site_type_symbol
 _atom_site_label
 _atom_site_symmetry_multiplicity
 _atom_site_fract_x
 _atom_site_fract_y
 _atom_site_fract_z
 _atom_site_occupancy
  Dy  Dy0  1  0.35320414  0.75000000  0.02844792  1
  Dy  Dy1  1  0.14679586  0.75000000  0.52844792  1
  Dy  Dy2  1  0.64679586  0.25000000  0.97155208  1
  Dy  Dy3  1  0.85320414  0.25000000  0.47155208  1
  Ge  Ge4  1  0.64488032  0.75000000  0.37914741  1
  Ge  Ge5  1  0.85511968  0.75000000  0.87914741  1
  Ge  Ge6  1  0.35511968  0.25000000  0.62085259  1
  Ge  Ge7  1  0.14488032  0.25000000  0.12085259  1
  Pd  Pd8  1  0.91316361  0.55166078  0.18193243  1
  Pd  Pd9  1  0.58683639  0.94833922  0.68193243  1
  Pd  Pd10  1  0.08683639  0.05166078  0.81806757  1
  Pd  Pd11  1  0.41316361  0.44833922  0.31806757  1
  Pd  Pd12  1  0.08683639  0.44833922  0.81806757  1
  Pd  Pd13  1  0.41316361  0.05166078  0.31806757  1
  Pd  Pd14  1  0.91316361  0.94833922  0.18193243  1
  Pd  Pd15  1  0.58683639  0.55166078  0.68193243  1
