# generated using pymatgen
data_EuHCl
_symmetry_space_group_name_H-M   'P 1'
_cell_length_a   4.01897659
_cell_length_b   4.01897659
_cell_length_c   6.92998795
_cell_angle_alpha   90.00000000
_cell_angle_beta   90.00000000
_cell_angle_gamma   90.00000000
_symmetry_Int_Tables_number   1
_chemical_formula_structural   EuHCl
_chemical_formula_sum   'Eu2 H2 Cl2'
_cell_volume   111.93436308
_cell_formula_units_Z   2
loop_
 _symmetry_equiv_pos_site_id
 _symmetry_equiv_pos_as_xyz
  1  'x, y, z'
loop_
 _atom_site_type_symbol
 _atom_site_label
 _atom_site_symmetry_multiplicity
 _atom_site_fract_x
 _atom_site_fract_y
 _atom_site_fract_z
 _atom_site_occupancy
  Eu  Eu0  1  -0.00000000  0.50000000  0.79854350  1
  Eu  Eu1  1  0.50000000  -0.00000000  0.20145650  1
  H  H2  1  -0.00000000  0.00000000  -0.00000000  1
  H  H3  1  0.50000000  0.50000000  -0.00000000  1
  Cl  Cl4  1  0.00000000  0.50000000  0.35055127  1
  Cl  Cl5  1  0.50000000  -0.00000000  0.64944873  1
