# generated using pymatgen
data_TbZnRh
_symmetry_space_group_name_H-M   'P 1'
_cell_length_a   4.01146095
_cell_length_b   6.91849527
_cell_length_c   8.08413506
_cell_angle_alpha   90.00000000
_cell_angle_beta   90.00000000
_cell_angle_gamma   90.00000000
_symmetry_Int_Tables_number   1
_chemical_formula_structural   TbZnRh
_chemical_formula_sum   'Tb4 Zn4 Rh4'
_cell_volume   224.36121221
_cell_formula_units_Z   4
loop_
 _symmetry_equiv_pos_site_id
 _symmetry_equiv_pos_as_xyz
  1  'x, y, z'
loop_
 _atom_site_type_symbol
 _atom_site_label
 _atom_site_symmetry_multiplicity
 _atom_site_fract_x
 _atom_site_fract_y
 _atom_site_fract_z
 _atom_site_occupancy
  Tb  Tb0  1  0.25000000  0.53858625  0.81556439  1
  Tb  Tb1  1  0.75000000  0.46141375  0.18443561  1
  Tb  Tb2  1  0.25000000  0.03858625  0.68443561  1
  Tb  Tb3  1  0.75000000  0.96141375  0.31556439  1
  Zn  Zn4  1  0.25000000  0.13612086  0.06271934  1
  Zn  Zn5  1  0.75000000  0.86387914  0.93728066  1
  Zn  Zn6  1  0.25000000  0.63612086  0.43728066  1
  Zn  Zn7  1  0.75000000  0.36387914  0.56271934  1
  Rh  Rh8  1  0.75000000  0.74371635  0.62364123  1
  Rh  Rh9  1  0.25000000  0.25628365  0.37635877  1
  Rh  Rh10  1  0.75000000  0.24371635  0.87635877  1
  Rh  Rh11  1  0.25000000  0.75628365  0.12364123  1
