# generated using pymatgen
data_Pr2GeRh3
_symmetry_space_group_name_H-M   'P 1'
_cell_length_a   5.18759994
_cell_length_b   5.18759994
_cell_length_c   5.18759907
_cell_angle_alpha   66.50740200
_cell_angle_beta   66.50740200
_cell_angle_gamma   66.50740774
_symmetry_Int_Tables_number   1
_chemical_formula_structural   Pr2GeRh3
_chemical_formula_sum   'Pr2 Ge1 Rh3'
_cell_volume   112.55020794
_cell_formula_units_Z   1
loop_
 _symmetry_equiv_pos_site_id
 _symmetry_equiv_pos_as_xyz
  1  'x, y, z'
loop_
 _atom_site_type_symbol
 _atom_site_label
 _atom_site_symmetry_multiplicity
 _atom_site_fract_x
 _atom_site_fract_y
 _atom_site_fract_z
 _atom_site_occupancy
  Pr  Pr0  1  0.62896869  0.62896869  0.62896869  1
  Pr  Pr1  1  0.37103131  0.37103131  0.37103131  1
  Ge  Ge2  1  0.00000000  0.00000000  -0.00000000  1
  Rh  Rh3  1  0.00000000  0.00000000  0.50000000  1
  Rh  Rh4  1  0.50000000  0.00000000  -0.00000000  1
  Rh  Rh5  1  0.00000000  0.50000000  -0.00000000  1
