# generated using pymatgen
data_GdGeRh
_symmetry_space_group_name_H-M   'P 1'
_cell_length_a   4.35392841
_cell_length_b   7.02985588
_cell_length_c   7.48449263
_cell_angle_alpha   90.00136192
_cell_angle_beta   90.00000000
_cell_angle_gamma   90.00000000
_symmetry_Int_Tables_number   1
_chemical_formula_structural   GdGeRh
_chemical_formula_sum   'Gd4 Ge4 Rh4'
_cell_volume   229.08152756
_cell_formula_units_Z   4
loop_
 _symmetry_equiv_pos_site_id
 _symmetry_equiv_pos_as_xyz
  1  'x, y, z'
loop_
 _atom_site_type_symbol
 _atom_site_label
 _atom_site_symmetry_multiplicity
 _atom_site_fract_x
 _atom_site_fract_y
 _atom_site_fract_z
 _atom_site_occupancy
  Gd  Gd0  1  0.25000000  0.49598461  0.69370324  1
  Gd  Gd1  1  0.25000000  0.99600419  0.80628629  1
  Gd  Gd2  1  0.75000000  0.50401828  0.30629578  1
  Gd  Gd3  1  0.75000000  0.00399295  0.19371379  1
  Ge  Ge4  1  0.25000000  0.79398360  0.39717194  1
  Ge  Ge5  1  0.25000000  0.29399477  0.10283408  1
  Ge  Ge6  1  0.75000000  0.20601681  0.60282766  1
  Ge  Ge7  1  0.75000000  0.70600463  0.89716710  1
  Rh  Rh8  1  0.25000000  0.15427330  0.43009647  1
  Rh  Rh9  1  0.25000000  0.65427719  0.06991689  1
  Rh  Rh10  1  0.75000000  0.84572269  0.56990344  1
  Rh  Rh11  1  0.75000000  0.34572698  0.93008331  1
