# generated using pymatgen
data_TbAlAu
_symmetry_space_group_name_H-M   'P 1'
_cell_length_a   4.46041694
_cell_length_b   7.21646831
_cell_length_c   7.74659838
_cell_angle_alpha   90.00000000
_cell_angle_beta   90.00000000
_cell_angle_gamma   90.00000000
_symmetry_Int_Tables_number   1
_chemical_formula_structural   TbAlAu
_chemical_formula_sum   'Tb4 Al4 Au4'
_cell_volume   249.35105270
_cell_formula_units_Z   4
loop_
 _symmetry_equiv_pos_site_id
 _symmetry_equiv_pos_as_xyz
  1  'x, y, z'
loop_
 _atom_site_type_symbol
 _atom_site_label
 _atom_site_symmetry_multiplicity
 _atom_site_fract_x
 _atom_site_fract_y
 _atom_site_fract_z
 _atom_site_occupancy
  Tb  Tb0  1  0.25000000  0.00782309  0.30141891  1
  Tb  Tb1  1  0.25000000  0.50782309  0.19858109  1
  Tb  Tb2  1  0.75000000  0.99218428  0.69857556  1
  Tb  Tb3  1  0.75000000  0.49218428  0.80142444  1
  Al  Al4  1  0.25000000  0.17401219  0.92221285  1
  Al  Al5  1  0.25000000  0.67401219  0.57778715  1
  Al  Al6  1  0.75000000  0.82597504  0.07781280  1
  Al  Al7  1  0.75000000  0.32597504  0.42218720  1
  Au  Au8  1  0.25000000  0.28703092  0.59373604  1
  Au  Au9  1  0.25000000  0.78703092  0.90626396  1
  Au  Au10  1  0.75000000  0.71297449  0.40625393  1
  Au  Au11  1  0.75000000  0.21297449  0.09374607  1
