# generated using pymatgen
data_Gd3RuO7
_symmetry_space_group_name_H-M   'P 1'
_cell_length_a   6.44899567
_cell_length_b   6.44899567
_cell_length_c   7.41371047
_cell_angle_alpha   90.00000000
_cell_angle_beta   90.00000000
_cell_angle_gamma   111.17211290
_symmetry_Int_Tables_number   1
_chemical_formula_structural   Gd3RuO7
_chemical_formula_sum   'Gd6 Ru2 O14'
_cell_volume   287.52028689
_cell_formula_units_Z   2
loop_
 _symmetry_equiv_pos_site_id
 _symmetry_equiv_pos_as_xyz
  1  'x, y, z'
loop_
 _atom_site_type_symbol
 _atom_site_label
 _atom_site_symmetry_multiplicity
 _atom_site_fract_x
 _atom_site_fract_y
 _atom_site_fract_z
 _atom_site_occupancy
  Gd  Gd0  1  0.47439901  0.92127348  0.75000000  1
  Gd  Gd1  1  0.52560099  0.07872652  0.25000000  1
  Gd  Gd2  1  0.92127348  0.47439901  0.75000000  1
  Gd  Gd3  1  0.07872652  0.52560099  0.25000000  1
  Gd  Gd4  1  -0.00000000  -0.00000000  0.50000000  1
  Gd  Gd5  1  -0.00000000  -0.00000000  0.00000000  1
  Ru  Ru6  1  0.50000000  0.50000000  0.50000000  1
  Ru  Ru7  1  0.50000000  0.50000000  0.00000000  1
  O  O8  1  0.58700042  0.58700042  0.75000000  1
  O  O9  1  0.41299958  0.41299958  0.25000000  1
  O  O10  1  0.84135212  0.10556786  0.75000000  1
  O  O11  1  0.15864788  0.89443214  0.25000000  1
  O  O12  1  0.10556786  0.84135212  0.75000000  1
  O  O13  1  0.89443214  0.15864788  0.25000000  1
  O  O14  1  0.43905823  0.18488369  0.95962636  1
  O  O15  1  0.56094177  0.81511631  0.45962636  1
  O  O16  1  0.18488369  0.43905823  0.95962636  1
  O  O17  1  0.81511631  0.56094177  0.45962636  1
  O  O18  1  0.43905823  0.18488369  0.54037364  1
  O  O19  1  0.56094177  0.81511631  0.04037364  1
  O  O20  1  0.81511631  0.56094177  0.04037364  1
  O  O21  1  0.18488369  0.43905823  0.54037364  1
