# generated using pymatgen
data_TbAsPd
_symmetry_space_group_name_H-M   'P 1'
_cell_length_a   4.13426336
_cell_length_b   7.08676292
_cell_length_c   7.91610306
_cell_angle_alpha   90.00000000
_cell_angle_beta   90.00000000
_cell_angle_gamma   90.00000000
_symmetry_Int_Tables_number   1
_chemical_formula_structural   TbAsPd
_chemical_formula_sum   'Tb4 As4 Pd4'
_cell_volume   231.93029604
_cell_formula_units_Z   4
loop_
 _symmetry_equiv_pos_site_id
 _symmetry_equiv_pos_as_xyz
  1  'x, y, z'
loop_
 _atom_site_type_symbol
 _atom_site_label
 _atom_site_symmetry_multiplicity
 _atom_site_fract_x
 _atom_site_fract_y
 _atom_site_fract_z
 _atom_site_occupancy
  Tb  Tb0  1  0.25000000  0.52911976  0.30686425  1
  Tb  Tb1  1  0.25000000  0.02911976  0.19313575  1
  Tb  Tb2  1  0.75000000  0.47088024  0.69313575  1
  Tb  Tb3  1  0.75000000  0.97088024  0.80686425  1
  As  As4  1  0.25000000  0.24938822  0.88102702  1
  As  As5  1  0.25000000  0.74938822  0.61897298  1
  As  As6  1  0.75000000  0.75061178  0.11897298  1
  As  As7  1  0.75000000  0.25061178  0.38102702  1
  Pd  Pd8  1  0.25000000  0.64519987  0.93686415  1
  Pd  Pd9  1  0.25000000  0.14519987  0.56313585  1
  Pd  Pd10  1  0.75000000  0.35480013  0.06313585  1
  Pd  Pd11  1  0.75000000  0.85480013  0.43686415  1
