# generated using pymatgen
data_SrCdPt
_symmetry_space_group_name_H-M   'P 1'
_cell_length_a   4.48455244
_cell_length_b   7.55149527
_cell_length_c   8.64259598
_cell_angle_alpha   90.00000000
_cell_angle_beta   90.00000000
_cell_angle_gamma   90.00000000
_symmetry_Int_Tables_number   1
_chemical_formula_structural   SrCdPt
_chemical_formula_sum   'Sr4 Cd4 Pt4'
_cell_volume   292.68217436
_cell_formula_units_Z   4
loop_
 _symmetry_equiv_pos_site_id
 _symmetry_equiv_pos_as_xyz
  1  'x, y, z'
loop_
 _atom_site_type_symbol
 _atom_site_label
 _atom_site_symmetry_multiplicity
 _atom_site_fract_x
 _atom_site_fract_y
 _atom_site_fract_z
 _atom_site_occupancy
  Sr  Sr0  1  0.25000000  0.02949654  0.31919535  1
  Sr  Sr1  1  0.25000000  0.52949654  0.18080465  1
  Sr  Sr2  1  0.75000000  0.97050346  0.68080465  1
  Sr  Sr3  1  0.75000000  0.47050346  0.81919535  1
  Cd  Cd4  1  0.25000000  0.14488985  0.93434097  1
  Cd  Cd5  1  0.25000000  0.64488985  0.56565903  1
  Cd  Cd6  1  0.75000000  0.85511015  0.06565903  1
  Cd  Cd7  1  0.75000000  0.35511015  0.43434097  1
  Pt  Pt8  1  0.25000000  0.27029540  0.62254510  1
  Pt  Pt9  1  0.25000000  0.77029540  0.87745490  1
  Pt  Pt10  1  0.75000000  0.72970460  0.37745490  1
  Pt  Pt11  1  0.75000000  0.22970460  0.12254510  1
