# generated using pymatgen
data_ErNiP
_symmetry_space_group_name_H-M   'P 1'
_cell_length_a   3.85016763
_cell_length_b   3.85016763
_cell_length_c   15.23056456
_cell_angle_alpha   90.00000000
_cell_angle_beta   90.00000000
_cell_angle_gamma   120.00001218
_symmetry_Int_Tables_number   1
_chemical_formula_structural   ErNiP
_chemical_formula_sum   'Er4 Ni4 P4'
_cell_volume   195.52660377
_cell_formula_units_Z   4
loop_
 _symmetry_equiv_pos_site_id
 _symmetry_equiv_pos_as_xyz
  1  'x, y, z'
loop_
 _atom_site_type_symbol
 _atom_site_label
 _atom_site_symmetry_multiplicity
 _atom_site_fract_x
 _atom_site_fract_y
 _atom_site_fract_z
 _atom_site_occupancy
  Er  Er0  1  0.00000000  -0.00000000  0.50001173  1
  Er  Er1  1  0.00000000  -0.00000000  -0.00001089  1
  Er  Er2  1  0.00000000  -0.00000000  0.24997416  1
  Er  Er3  1  0.00000000  -0.00000000  0.75002386  1
  Ni  Ni4  1  0.33333300  0.66666700  0.37089106  1
  Ni  Ni5  1  0.66666700  0.33333300  0.62916120  1
  Ni  Ni6  1  0.66666700  0.33333300  0.87085241  1
  Ni  Ni7  1  0.33333300  0.66666700  0.12909626  1
  P  P8  1  0.33333300  0.66666700  0.87762318  1
  P  P9  1  0.66666700  0.33333300  0.12238653  1
  P  P10  1  0.66666700  0.33333300  0.37759001  1
  P  P11  1  0.33333300  0.66666700  0.62240049  1
