# generated using pymatgen
data_URuS3
_symmetry_space_group_name_H-M   'P 1'
_cell_length_a   5.96715784
_cell_length_b   6.93488214
_cell_length_c   8.82829566
_cell_angle_alpha   90.00000000
_cell_angle_beta   90.00000000
_cell_angle_gamma   90.00000000
_symmetry_Int_Tables_number   1
_chemical_formula_structural   URuS3
_chemical_formula_sum   'U4 Ru4 S12'
_cell_volume   365.32843760
_cell_formula_units_Z   4
loop_
 _symmetry_equiv_pos_site_id
 _symmetry_equiv_pos_as_xyz
  1  'x, y, z'
loop_
 _atom_site_type_symbol
 _atom_site_label
 _atom_site_symmetry_multiplicity
 _atom_site_fract_x
 _atom_site_fract_y
 _atom_site_fract_z
 _atom_site_occupancy
  U  U0  1  0.43459121  0.88357773  0.25000000  1
  U  U1  1  0.06540879  0.38357773  0.25000000  1
  U  U2  1  0.56540879  0.11642227  0.75000000  1
  U  U3  1  0.93459121  0.61642227  0.75000000  1
  Ru  Ru4  1  0.50000000  0.50000000  0.00000000  1
  Ru  Ru5  1  -0.00000000  0.00000000  0.50000000  1
  Ru  Ru6  1  0.50000000  0.50000000  0.50000000  1
  Ru  Ru7  1  -0.00000000  0.00000000  0.00000000  1
  S  S8  1  0.64792055  0.54600677  0.25000000  1
  S  S9  1  0.85207945  0.04600677  0.25000000  1
  S  S10  1  0.35207945  0.45399323  0.75000000  1
  S  S11  1  0.14792055  0.95399323  0.75000000  1
  S  S12  1  0.65543924  0.81544303  0.55813299  1
  S  S13  1  0.84456076  0.31544303  0.94186701  1
  S  S14  1  0.34456076  0.18455697  0.05813299  1
  S  S15  1  0.15543924  0.68455697  0.44186701  1
  S  S16  1  0.34456076  0.18455697  0.44186701  1
  S  S17  1  0.15543924  0.68455697  0.05813299  1
  S  S18  1  0.65543924  0.81544303  0.94186701  1
  S  S19  1  0.84456076  0.31544303  0.55813299  1
