# generated using pymatgen
data_CaVF6
_symmetry_space_group_name_H-M   'P 1'
_cell_length_a   5.70435428
_cell_length_b   5.70435440
_cell_length_c   5.70435585
_cell_angle_alpha   54.78348025
_cell_angle_beta   54.78350625
_cell_angle_gamma   54.78349711
_symmetry_Int_Tables_number   1
_chemical_formula_structural   CaVF6
_chemical_formula_sum   'Ca1 V1 F6'
_cell_volume   115.30731339
_cell_formula_units_Z   1
loop_
 _symmetry_equiv_pos_site_id
 _symmetry_equiv_pos_as_xyz
  1  'x, y, z'
loop_
 _atom_site_type_symbol
 _atom_site_label
 _atom_site_symmetry_multiplicity
 _atom_site_fract_x
 _atom_site_fract_y
 _atom_site_fract_z
 _atom_site_occupancy
  Ca  Ca0  1  0.50000000  0.50000000  0.50000000  1
  V  V1  1  0.00000000  0.00000000  -0.00000000  1
  F  F2  1  0.64738978  0.90931487  0.21981250  1
  F  F3  1  0.90931387  0.21981349  0.64738978  1
  F  F4  1  0.78018651  0.35261122  0.09068513  1
  F  F5  1  0.09068613  0.78018651  0.35261022  1
  F  F6  1  0.35261022  0.09068513  0.78018750  1
  F  F7  1  0.21981349  0.64738878  0.90931487  1
