# generated using pymatgen
data_PuB2Ru
_symmetry_space_group_name_H-M   'P 1'
_cell_length_a   5.36503121
_cell_length_b   5.78123040
_cell_length_c   6.43349796
_cell_angle_alpha   90.00088655
_cell_angle_beta   90.00000000
_cell_angle_gamma   90.00000000
_symmetry_Int_Tables_number   1
_chemical_formula_structural   PuB2Ru
_chemical_formula_sum   'Pu4 B8 Ru4'
_cell_volume   199.54447063
_cell_formula_units_Z   4
loop_
 _symmetry_equiv_pos_site_id
 _symmetry_equiv_pos_as_xyz
  1  'x, y, z'
loop_
 _atom_site_type_symbol
 _atom_site_label
 _atom_site_symmetry_multiplicity
 _atom_site_fract_x
 _atom_site_fract_y
 _atom_site_fract_z
 _atom_site_occupancy
  Pu  Pu0  1  0.75000000  0.50177490  0.15700578  1
  Pu  Pu1  1  0.75000000  0.00179101  0.34299978  1
  Pu  Pu2  1  0.25000000  0.49822064  0.84303785  1
  Pu  Pu3  1  0.25000000  0.99822234  0.65695481  1
  B  B4  1  0.91168382  0.12696442  0.96376802  1
  B  B5  1  0.58831727  0.62696870  0.53622793  1
  B  B6  1  0.41169297  0.87303347  0.03625002  1
  B  B7  1  0.08830681  0.37302787  0.46375386  1
  B  B8  1  0.08830703  0.87303347  0.03625002  1
  B  B9  1  0.41169319  0.37302787  0.46375386  1
  B  B10  1  0.58831618  0.12696442  0.96376802  1
  B  B11  1  0.91168273  0.62696870  0.53622793  1
  Ru  Ru12  1  0.75000000  0.30757754  0.68454439  1
  Ru  Ru13  1  0.75000000  0.80757796  0.81545845  1
  Ru  Ru14  1  0.25000000  0.69241942  0.31543342  1
  Ru  Ru15  1  0.25000000  0.19242625  0.18456485  1
