# generated using pymatgen
data_Dy2B6Ru
_symmetry_space_group_name_H-M   'P 1'
_cell_length_a   3.65939447
_cell_length_b   9.13605387
_cell_length_c   11.49900063
_cell_angle_alpha   90.00030389
_cell_angle_beta   90.00000000
_cell_angle_gamma   90.00000000
_symmetry_Int_Tables_number   1
_chemical_formula_structural   Dy2B6Ru
_chemical_formula_sum   'Dy8 B24 Ru4'
_cell_volume   384.43947624
_cell_formula_units_Z   4
loop_
 _symmetry_equiv_pos_site_id
 _symmetry_equiv_pos_as_xyz
  1  'x, y, z'
loop_
 _atom_site_type_symbol
 _atom_site_label
 _atom_site_symmetry_multiplicity
 _atom_site_fract_x
 _atom_site_fract_y
 _atom_site_fract_z
 _atom_site_occupancy
  Dy  Dy0  1  0.00000000  0.32274890  0.41418236  1
  Dy  Dy1  1  0.00000000  0.67724850  0.58581240  1
  Dy  Dy2  1  -0.00000000  0.82275119  0.08581992  1
  Dy  Dy3  1  0.00000000  0.17723821  0.91418693  1
  Dy  Dy4  1  0.00000000  0.94387901  0.37270812  1
  Dy  Dy5  1  -0.00000000  0.05611940  0.62729335  1
  Dy  Dy6  1  -0.00000000  0.44388102  0.12729474  1
  Dy  Dy7  1  0.00000000  0.55611790  0.87270449  1
  B  B8  1  0.50000000  0.55394153  0.43259358  1
  B  B9  1  0.50000000  0.44606356  0.56739367  1
  B  B10  1  0.50000000  0.05393391  0.06741078  1
  B  B11  1  0.50000000  0.94606466  0.93260053  1
  B  B12  1  0.50000000  0.74721633  0.41980790  1
  B  B13  1  0.50000000  0.25278517  0.58018083  1
  B  B14  1  0.50000000  0.24721316  0.08020261  1
  B  B15  1  0.50000000  0.75279007  0.91981136  1
  B  B16  1  0.50000000  0.79039571  0.26664501  1
  B  B17  1  0.50000000  0.20961117  0.73334957  1
  B  B18  1  0.50000000  0.29038801  0.23336762  1
  B  B19  1  0.50000000  0.70961170  0.76664007  1
  B  B20  1  0.50000000  0.63223954  0.18562583  1
  B  B21  1  0.50000000  0.36776170  0.81437361  1
  B  B22  1  0.50000000  0.13223292  0.31438535  1
  B  B23  1  0.50000000  0.86775774  0.68561640  1
  B  B24  1  0.50000000  0.98399866  0.21285645  1
  B  B25  1  0.50000000  0.01599319  0.78714721  1
  B  B26  1  0.50000000  0.48401123  0.28715547  1
  B  B27  1  0.50000000  0.51599686  0.71284222  1
  B  B28  1  0.50000000  0.61124264  0.03072857  1
  B  B29  1  0.50000000  0.38876364  0.96928045  1
  B  B30  1  0.50000000  0.11123897  0.46927218  1
  B  B31  1  0.50000000  0.88875332  0.53072140  1
  Ru  Ru32  1  0.00000000  0.63764724  0.32126287  1
  Ru  Ru33  1  0.00000000  0.36236447  0.67872862  1
  Ru  Ru34  1  -0.00000000  0.13763588  0.17872376  1
  Ru  Ru35  1  -0.00000000  0.86236389  0.82127376  1
