# generated using pymatgen
data_DyGePd
_symmetry_space_group_name_H-M   'P 1'
_cell_length_a   4.33396721
_cell_length_b   7.49487529
_cell_length_c   11.30925580
_cell_angle_alpha   109.35135955
_cell_angle_beta   101.04684513
_cell_angle_gamma   90.00000000
_symmetry_Int_Tables_number   1
_chemical_formula_structural   DyGePd
_chemical_formula_sum   'Dy6 Ge6 Pd6'
_cell_volume   339.37676573
_cell_formula_units_Z   6
loop_
 _symmetry_equiv_pos_site_id
 _symmetry_equiv_pos_as_xyz
  1  'x, y, z'
loop_
 _atom_site_type_symbol
 _atom_site_label
 _atom_site_symmetry_multiplicity
 _atom_site_fract_x
 _atom_site_fract_y
 _atom_site_fract_z
 _atom_site_occupancy
  Dy  Dy0  1  -0.00000000  0.53454761  -0.00000000  1
  Dy  Dy1  1  0.66648242  0.20350169  0.33296584  1
  Dy  Dy2  1  0.33351758  0.87053585  0.66703416  1
  Dy  Dy3  1  0.50000000  0.95083129  0.00000000  1
  Dy  Dy4  1  0.83220341  0.28997462  0.66440683  1
  Dy  Dy5  1  0.16779659  0.62556779  0.33559317  1
  Ge  Ge6  1  0.93543480  0.08947579  0.87086861  1
  Ge  Ge7  1  0.06456520  0.21860718  0.12913139  1
  Ge  Ge8  1  0.76693867  0.60472485  0.53387834  1
  Ge  Ge9  1  0.23306133  0.07084751  0.46612166  1
  Ge  Ge10  1  0.59453610  0.74987916  0.18907221  1
  Ge  Ge11  1  0.40546390  0.56080696  0.81092779  1
  Pd  Pd12  1  0.89582113  0.72352435  0.79164225  1
  Pd  Pd13  1  0.10417887  0.93188210  0.20835775  1
  Pd  Pd14  1  0.73395911  0.90025940  0.46791823  1
  Pd  Pd15  1  0.26604089  0.43234117  0.53208177  1
  Pd  Pd16  1  0.57242217  0.39601800  0.14484434  1
  Pd  Pd17  1  0.42757783  0.25117366  0.85515566  1
