# generated using pymatgen
data_PrGeRh
_symmetry_space_group_name_H-M   'P 1'
_cell_length_a   4.52115065
_cell_length_b   7.28709846
_cell_length_c   7.39528786
_cell_angle_alpha   89.99990853
_cell_angle_beta   90.00000000
_cell_angle_gamma   90.00000000
_symmetry_Int_Tables_number   1
_chemical_formula_structural   PrGeRh
_chemical_formula_sum   'Pr4 Ge4 Rh4'
_cell_volume   243.64567105
_cell_formula_units_Z   4
loop_
 _symmetry_equiv_pos_site_id
 _symmetry_equiv_pos_as_xyz
  1  'x, y, z'
loop_
 _atom_site_type_symbol
 _atom_site_label
 _atom_site_symmetry_multiplicity
 _atom_site_fract_x
 _atom_site_fract_y
 _atom_site_fract_z
 _atom_site_occupancy
  Pr  Pr0  1  0.25000000  0.97941630  0.80588516  1
  Pr  Pr1  1  0.25000000  0.47939709  0.69411994  1
  Pr  Pr2  1  0.75000000  0.02060449  0.19412112  1
  Pr  Pr3  1  0.75000000  0.52057529  0.30587438  1
  Ge  Ge4  1  0.25000000  0.81835671  0.41202576  1
  Ge  Ge5  1  0.25000000  0.31836197  0.08797057  1
  Ge  Ge6  1  0.75000000  0.18165527  0.58795788  1
  Ge  Ge7  1  0.75000000  0.68163077  0.91204607  1
  Rh  Rh8  1  0.25000000  0.18782169  0.41185516  1
  Rh  Rh9  1  0.25000000  0.68780136  0.08813893  1
  Rh  Rh10  1  0.75000000  0.81218898  0.58813446  1
  Rh  Rh11  1  0.75000000  0.31219006  0.91187156  1
