# generated using pymatgen
data_Er3Tm
_symmetry_space_group_name_H-M   'P 1'
_cell_length_a   7.08966783
_cell_length_b   7.08967558
_cell_length_c   5.69341945
_cell_angle_alpha   90.00000000
_cell_angle_beta   90.00000000
_cell_angle_gamma   120.00005119
_symmetry_Int_Tables_number   1
_chemical_formula_structural   Er3Tm
_chemical_formula_sum   'Er6 Tm2'
_cell_volume   247.83111951
_cell_formula_units_Z   2
loop_
 _symmetry_equiv_pos_site_id
 _symmetry_equiv_pos_as_xyz
  1  'x, y, z'
loop_
 _atom_site_type_symbol
 _atom_site_label
 _atom_site_symmetry_multiplicity
 _atom_site_fract_x
 _atom_site_fract_y
 _atom_site_fract_z
 _atom_site_occupancy
  Er  Er0  1  0.16689210  0.33378248  0.25000000  1
  Er  Er1  1  0.66621787  0.83310944  0.25000000  1
  Er  Er2  1  0.16689210  0.83310961  0.25000000  1
  Er  Er3  1  0.83310590  0.66621452  0.75000000  1
  Er  Er4  1  0.33378513  0.16689356  0.75000000  1
  Er  Er5  1  0.83310690  0.16689239  0.75000000  1
  Tm  Tm6  1  0.33333197  0.66666598  0.75000000  1
  Tm  Tm7  1  0.66666803  0.33333502  0.25000000  1
