# generated using pymatgen
data_EuZnGa
_symmetry_space_group_name_H-M   'P 1'
_cell_length_a   5.77416792
_cell_length_b   5.77416792
_cell_length_c   7.55769448
_cell_angle_alpha   50.20969774
_cell_angle_beta   50.20969774
_cell_angle_gamma   46.81615126
_symmetry_Int_Tables_number   1
_chemical_formula_structural   EuZnGa
_chemical_formula_sum   'Eu2 Zn2 Ga2'
_cell_volume   131.68414944
_cell_formula_units_Z   2
loop_
 _symmetry_equiv_pos_site_id
 _symmetry_equiv_pos_as_xyz
  1  'x, y, z'
loop_
 _atom_site_type_symbol
 _atom_site_label
 _atom_site_symmetry_multiplicity
 _atom_site_fract_x
 _atom_site_fract_y
 _atom_site_fract_z
 _atom_site_occupancy
  Eu  Eu0  1  0.45790690  0.45790690  0.29681307  1
  Eu  Eu1  1  0.54209310  0.54209310  0.70318693  1
  Zn  Zn2  1  0.83417204  0.83417204  0.72541894  1
  Zn  Zn3  1  0.16582796  0.16582796  0.27458106  1
  Ga  Ga4  1  0.16118712  0.16118712  0.89454071  1
  Ga  Ga5  1  0.83881288  0.83881288  0.10545929  1
