# generated using pymatgen
data_Sr(Cd2Pt)2
_symmetry_space_group_name_H-M   'P 1'
_cell_length_a   8.28731679
_cell_length_b   8.28731679
_cell_length_c   4.49598236
_cell_angle_alpha   90.00000000
_cell_angle_beta   90.00000000
_cell_angle_gamma   90.00000000
_symmetry_Int_Tables_number   1
_chemical_formula_structural   Sr(Cd2Pt)2
_chemical_formula_sum   'Sr2 Cd8 Pt4'
_cell_volume   308.78235811
_cell_formula_units_Z   2
loop_
 _symmetry_equiv_pos_site_id
 _symmetry_equiv_pos_as_xyz
  1  'x, y, z'
loop_
 _atom_site_type_symbol
 _atom_site_label
 _atom_site_symmetry_multiplicity
 _atom_site_fract_x
 _atom_site_fract_y
 _atom_site_fract_z
 _atom_site_occupancy
  Sr  Sr0  1  0.50000000  0.50000000  0.50000000  1
  Sr  Sr1  1  -0.00000000  0.00000000  0.00000000  1
  Cd  Cd2  1  0.34294668  0.09206060  0.50000000  1
  Cd  Cd3  1  0.65705332  0.90793940  0.50000000  1
  Cd  Cd4  1  0.84294668  0.40793940  0.00000000  1
  Cd  Cd5  1  0.15705332  0.59206060  -0.00000000  1
  Cd  Cd6  1  0.09206060  0.34294668  0.50000000  1
  Cd  Cd7  1  0.90793940  0.65705332  0.50000000  1
  Cd  Cd8  1  0.40793940  0.84294668  -0.00000000  1
  Cd  Cd9  1  0.59206060  0.15705332  -0.00000000  1
  Pt  Pt10  1  0.78100680  0.21899320  0.50000000  1
  Pt  Pt11  1  0.21899320  0.78100680  0.50000000  1
  Pt  Pt12  1  0.28100680  0.28100680  0.00000000  1
  Pt  Pt13  1  0.71899320  0.71899320  0.00000000  1
