# generated using pymatgen
data_Ca(GePd)2
_symmetry_space_group_name_H-M   'P 1'
_cell_length_a   4.30916078
_cell_length_b   4.30916095
_cell_length_c   5.90322788
_cell_angle_alpha   111.40656291
_cell_angle_beta   111.40655885
_cell_angle_gamma   90.00000390
_symmetry_Int_Tables_number   1
_chemical_formula_structural   Ca(GePd)2
_chemical_formula_sum   'Ca1 Ge2 Pd2'
_cell_volume   93.88516928
_cell_formula_units_Z   1
loop_
 _symmetry_equiv_pos_site_id
 _symmetry_equiv_pos_as_xyz
  1  'x, y, z'
loop_
 _atom_site_type_symbol
 _atom_site_label
 _atom_site_symmetry_multiplicity
 _atom_site_fract_x
 _atom_site_fract_y
 _atom_site_fract_z
 _atom_site_occupancy
  Ca  Ca0  1  -0.00000000  -0.00000000  -0.00000000  1
  Ge  Ge1  1  0.37621370  0.37621370  0.75242839  1
  Ge  Ge2  1  0.62378630  0.62378630  0.24757161  1
  Pd  Pd3  1  0.25000000  0.75000000  0.50000000  1
  Pd  Pd4  1  0.75000000  0.25000000  0.50000000  1
