# generated using pymatgen
data_CrSbSe3
_symmetry_space_group_name_H-M   'P 1'
_cell_length_a   3.82541442
_cell_length_b   9.32794413
_cell_length_c   13.52534271
_cell_angle_alpha   90.00000000
_cell_angle_beta   90.00000000
_cell_angle_gamma   90.00000000
_symmetry_Int_Tables_number   1
_chemical_formula_structural   CrSbSe3
_chemical_formula_sum   'Cr4 Sb4 Se12'
_cell_volume   482.62821209
_cell_formula_units_Z   4
loop_
 _symmetry_equiv_pos_site_id
 _symmetry_equiv_pos_as_xyz
  1  'x, y, z'
loop_
 _atom_site_type_symbol
 _atom_site_label
 _atom_site_symmetry_multiplicity
 _atom_site_fract_x
 _atom_site_fract_y
 _atom_site_fract_z
 _atom_site_occupancy
  Cr  Cr0  1  0.75000000  0.15569889  0.45614755  1
  Cr  Cr1  1  0.25000000  0.84430111  0.54385245  1
  Cr  Cr2  1  0.75000000  0.65569889  0.04385245  1
  Cr  Cr3  1  0.25000000  0.34430111  0.95614755  1
  Sb  Sb4  1  0.25000000  0.46899963  0.34425012  1
  Sb  Sb5  1  0.75000000  0.53100037  0.65574988  1
  Sb  Sb6  1  0.25000000  0.96899963  0.15574988  1
  Sb  Sb7  1  0.75000000  0.03100037  0.84425012  1
  Se  Se8  1  0.75000000  0.17354907  0.01587130  1
  Se  Se9  1  0.25000000  0.82645093  0.98412870  1
  Se  Se10  1  0.75000000  0.67354907  0.48412870  1
  Se  Se11  1  0.25000000  0.32645093  0.51587130  1
  Se  Se12  1  0.25000000  0.21271882  0.78952800  1
  Se  Se13  1  0.75000000  0.78728118  0.21047200  1
  Se  Se14  1  0.25000000  0.71271882  0.71047200  1
  Se  Se15  1  0.75000000  0.28728118  0.28952800  1
  Se  Se16  1  0.75000000  0.49834043  0.89347444  1
  Se  Se17  1  0.25000000  0.50165957  0.10652556  1
  Se  Se18  1  0.75000000  0.99834043  0.60652556  1
  Se  Se19  1  0.25000000  0.00165957  0.39347444  1
