# generated using pymatgen
data_TiAu2
_symmetry_space_group_name_H-M   'P 1'
_cell_length_a   3.43727479
_cell_length_b   3.43727479
_cell_length_c   4.93015943
_cell_angle_alpha   110.40153376
_cell_angle_beta   110.40153376
_cell_angle_gamma   90.00000000
_symmetry_Int_Tables_number   1
_chemical_formula_structural   TiAu2
_chemical_formula_sum   'Ti1 Au2'
_cell_volume   50.67875710
_cell_formula_units_Z   1
loop_
 _symmetry_equiv_pos_site_id
 _symmetry_equiv_pos_as_xyz
  1  'x, y, z'
loop_
 _atom_site_type_symbol
 _atom_site_label
 _atom_site_symmetry_multiplicity
 _atom_site_fract_x
 _atom_site_fract_y
 _atom_site_fract_z
 _atom_site_occupancy
  Ti  Ti0  1  -0.00000000  -0.00000000  -0.00000000  1
  Au  Au1  1  0.66438337  0.66438337  0.32876673  1
  Au  Au2  1  0.33561663  0.33561663  0.67123327  1
