# generated using pymatgen
data_Ce2NCl3
_symmetry_space_group_name_H-M   'P 1'
_cell_length_a   8.25877236
_cell_length_b   8.25847947
_cell_length_c   8.25847947
_cell_angle_alpha   136.69123628
_cell_angle_beta   130.81639030
_cell_angle_gamma   67.58486210
_symmetry_Int_Tables_number   1
_chemical_formula_structural   Ce2NCl3
_chemical_formula_sum   'Ce4 N2 Cl6'
_cell_volume   287.53592383
_cell_formula_units_Z   2
loop_
 _symmetry_equiv_pos_site_id
 _symmetry_equiv_pos_as_xyz
  1  'x, y, z'
loop_
 _atom_site_type_symbol
 _atom_site_label
 _atom_site_symmetry_multiplicity
 _atom_site_fract_x
 _atom_site_fract_y
 _atom_site_fract_z
 _atom_site_occupancy
  Ce  Ce0  1  0.91783288  0.59359508  0.32423681  1
  Ce  Ce1  1  0.08216712  0.40640492  0.67576319  1
  Ce  Ce2  1  0.73071336  0.90639989  0.82431347  1
  Ce  Ce3  1  0.26928664  0.09360011  0.17568653  1
  N  N4  1  0.00000000  0.25003639  0.25003639  1
  N  N5  1  -0.00000000  0.74996361  0.74996361  1
  Cl  Cl6  1  0.50000000  0.25001272  0.75001272  1
  Cl  Cl7  1  0.50000000  0.74998728  0.24998728  1
  Cl  Cl8  1  0.98610537  0.80176263  0.18434274  1
  Cl  Cl9  1  0.01389463  0.19823737  0.81565726  1
  Cl  Cl10  1  0.38251553  0.69821888  0.68429664  1
  Cl  Cl11  1  0.61748447  0.30178112  0.31570336  1
