# generated using pymatgen
data_Tb(BO2)3
_symmetry_space_group_name_H-M   'P 1'
_cell_length_a   6.45944627
_cell_length_b   6.45944627
_cell_length_c   6.45944627
_cell_angle_alpha   123.93895371
_cell_angle_beta   105.97196004
_cell_angle_gamma   99.58576817
_symmetry_Int_Tables_number   1
_chemical_formula_structural   Tb(BO2)3
_chemical_formula_sum   'Tb2 B6 O12'
_cell_volume   196.89088516
_cell_formula_units_Z   2
loop_
 _symmetry_equiv_pos_site_id
 _symmetry_equiv_pos_as_xyz
  1  'x, y, z'
loop_
 _atom_site_type_symbol
 _atom_site_label
 _atom_site_symmetry_multiplicity
 _atom_site_fract_x
 _atom_site_fract_y
 _atom_site_fract_z
 _atom_site_occupancy
  Tb  Tb0  1  0.75000000  0.00000000  0.75000000  1
  Tb  Tb1  1  0.25000000  0.00000000  0.25000000  1
  B  B2  1  0.25000000  0.50000000  0.75000000  1
  B  B3  1  0.75000000  0.50000000  0.25000000  1
  B  B4  1  0.18556497  0.80518602  0.61962105  1
  B  B5  1  0.68556497  0.56594392  0.88037895  1
  B  B6  1  0.81443503  0.19481398  0.38037895  1
  B  B7  1  0.31443503  0.43405608  0.11962105  1
  O  O8  1  0.05164416  0.24730915  0.49901265  1
  O  O9  1  0.34072988  0.90623507  0.56550519  1
  O  O10  1  0.84072988  0.77522469  0.93449481  1
  O  O11  1  0.65927012  0.09376493  0.43449481  1
  O  O12  1  0.44835584  0.44736849  0.69566499  1
  O  O13  1  0.25170350  0.75269085  0.80433501  1
  O  O14  1  0.55164416  0.55263151  0.30433501  1
  O  O15  1  0.74829650  0.24730915  0.19566499  1
  O  O16  1  0.94835584  0.75269085  0.50098735  1
  O  O17  1  0.75170350  0.44736849  0.99901265  1
  O  O18  1  0.15927012  0.22477531  0.06550519  1
  O  O19  1  0.24829650  0.55263151  0.00098735  1
