# generated using pymatgen
data_TmCdNi4
_symmetry_space_group_name_H-M   'P 1'
_cell_length_a   4.89187651
_cell_length_b   4.89188584
_cell_length_c   4.89188728
_cell_angle_alpha   59.99999025
_cell_angle_beta   59.99992718
_cell_angle_gamma   59.99990776
_symmetry_Int_Tables_number   1
_chemical_formula_structural   TmCdNi4
_chemical_formula_sum   'Tm1 Cd1 Ni4'
_cell_volume   82.77756918
_cell_formula_units_Z   1
loop_
 _symmetry_equiv_pos_site_id
 _symmetry_equiv_pos_as_xyz
  1  'x, y, z'
loop_
 _atom_site_type_symbol
 _atom_site_label
 _atom_site_symmetry_multiplicity
 _atom_site_fract_x
 _atom_site_fract_y
 _atom_site_fract_z
 _atom_site_occupancy
  Tm  Tm0  1  0.24999900  0.25000100  0.25000000  1
  Cd  Cd1  1  0.00000000  -0.00000000  0.00000000  1
  Ni  Ni2  1  0.62584589  0.62584489  0.12246534  1
  Ni  Ni3  1  0.62584589  0.12246534  0.62584489  1
  Ni  Ni4  1  0.12246534  0.62584489  0.62584489  1
  Ni  Ni5  1  0.62584589  0.62584489  0.62584489  1
