# generated using pymatgen
data_YbP3(HO)6
_symmetry_space_group_name_H-M   'P 1'
_cell_length_a   7.56337313
_cell_length_b   7.56337313
_cell_length_c   11.94813312
_cell_angle_alpha   60.31786679
_cell_angle_beta   60.31786679
_cell_angle_gamma   43.90109568
_symmetry_Int_Tables_number   1
_chemical_formula_structural   YbP3(HO)6
_chemical_formula_sum   'Yb2 P6 H12 O12'
_cell_volume   400.74271277
_cell_formula_units_Z   2
loop_
 _symmetry_equiv_pos_site_id
 _symmetry_equiv_pos_as_xyz
  1  'x, y, z'
loop_
 _atom_site_type_symbol
 _atom_site_label
 _atom_site_symmetry_multiplicity
 _atom_site_fract_x
 _atom_site_fract_y
 _atom_site_fract_z
 _atom_site_occupancy
  Yb  Yb0  1  0.50000000  0.50000000  0.00000000  1
  Yb  Yb1  1  0.50000000  0.50000000  0.50000000  1
  P  P2  1  0.81870824  0.81870824  0.09164349  1
  P  P3  1  0.18129176  0.18129176  0.90835651  1
  P  P4  1  0.91149894  0.91149894  0.71710870  1
  P  P5  1  0.08850106  0.08850106  0.28289130  1
  P  P6  1  0.66731681  0.66731681  0.64309802  1
  P  P7  1  0.33268319  0.33268319  0.35690198  1
  H  H8  1  0.71374417  0.71374417  0.10375297  1
  H  H9  1  0.28625583  0.28625583  0.89624703  1
  H  H10  1  0.79313561  0.79313561  0.22244000  1
  H  H11  1  0.20686439  0.20686439  0.77756000  1
  H  H12  1  0.00469240  0.00469240  0.73147865  1
  H  H13  1  0.99530760  0.99530760  0.26852135  1
  H  H14  1  0.81722588  0.81722588  0.84673608  1
  H  H15  1  0.18277412  0.18277412  0.15326392  1
  H  H16  1  0.54184183  0.93331868  0.61678055  1
  H  H17  1  0.93331868  0.54184183  0.61678055  1
  H  H18  1  0.45815817  0.06668132  0.38321945  1
  H  H19  1  0.06668132  0.45815817  0.38321945  1
  O  O20  1  0.10623103  0.65227941  0.02502605  1
  O  O21  1  0.65227941  0.10623103  0.02502605  1
  O  O22  1  0.89376897  0.34772059  0.97497395  1
  O  O23  1  0.34772059  0.89376897  0.97497395  1
  O  O24  1  0.68409347  0.13742683  0.65095995  1
  O  O25  1  0.13742683  0.68409347  0.65095995  1
  O  O26  1  0.31590653  0.86257317  0.34904005  1
  O  O27  1  0.86257317  0.31590653  0.34904005  1
  O  O28  1  0.57442654  0.57442654  0.78718085  1
  O  O29  1  0.42557346  0.42557346  0.21281915  1
  O  O30  1  0.63142825  0.63142825  0.54433031  1
  O  O31  1  0.36857175  0.36857175  0.45566969  1
