# generated using pymatgen
data_DyGeRu
_symmetry_space_group_name_H-M   'P 1'
_cell_length_a   4.41409516
_cell_length_b   7.02618810
_cell_length_c   7.16356051
_cell_angle_alpha   90.00000000
_cell_angle_beta   90.00000000
_cell_angle_gamma   90.00000000
_symmetry_Int_Tables_number   1
_chemical_formula_structural   DyGeRu
_chemical_formula_sum   'Dy4 Ge4 Ru4'
_cell_volume   222.17254885
_cell_formula_units_Z   4
loop_
 _symmetry_equiv_pos_site_id
 _symmetry_equiv_pos_as_xyz
  1  'x, y, z'
loop_
 _atom_site_type_symbol
 _atom_site_label
 _atom_site_symmetry_multiplicity
 _atom_site_fract_x
 _atom_site_fract_y
 _atom_site_fract_z
 _atom_site_occupancy
  Dy  Dy0  1  0.25000000  0.98401775  0.80816614  1
  Dy  Dy1  1  0.75000000  0.01598842  0.19183316  1
  Dy  Dy2  1  0.25000000  0.48401775  0.69183386  1
  Dy  Dy3  1  0.75000000  0.51598842  0.30816684  1
  Ge  Ge4  1  0.25000000  0.29840154  0.10639001  1
  Ge  Ge5  1  0.75000000  0.70159324  0.89362100  1
  Ge  Ge6  1  0.25000000  0.79840154  0.39360999  1
  Ge  Ge7  1  0.75000000  0.20159324  0.60637900  1
  Ru  Ru8  1  0.75000000  0.84645296  0.56450859  1
  Ru  Ru9  1  0.25000000  0.15354608  0.43549826  1
  Ru  Ru10  1  0.75000000  0.34645296  0.93549141  1
  Ru  Ru11  1  0.25000000  0.65354608  0.06450174  1
