# generated using pymatgen
data_Ce3GeS2
_symmetry_space_group_name_H-M   'P 1'
_cell_length_a   7.25798049
_cell_length_b   7.25798049
_cell_length_c   7.25798049
_cell_angle_alpha   146.16187009
_cell_angle_beta   131.81450615
_cell_angle_gamma   60.17614152
_symmetry_Int_Tables_number   1
_chemical_formula_structural   Ce3GeS2
_chemical_formula_sum   'Ce3 Ge1 S2'
_cell_volume   157.20430166
_cell_formula_units_Z   1
loop_
 _symmetry_equiv_pos_site_id
 _symmetry_equiv_pos_as_xyz
  1  'x, y, z'
loop_
 _atom_site_type_symbol
 _atom_site_label
 _atom_site_symmetry_multiplicity
 _atom_site_fract_x
 _atom_site_fract_y
 _atom_site_fract_z
 _atom_site_occupancy
  Ce  Ce0  1  0.33228835  0.33228835  -0.00000000  1
  Ce  Ce1  1  -0.00000000  -0.00000000  0.00000000  1
  Ce  Ce2  1  0.66771165  0.66771165  0.00000000  1
  Ge  Ge3  1  0.50000000  -0.00000000  0.50000000  1
  S  S4  1  0.16544779  0.66544779  0.50000000  1
  S  S5  1  0.83455221  0.33455221  0.50000000  1
