# generated using pymatgen
data_SmAlPd
_symmetry_space_group_name_H-M   'P 1'
_cell_length_a   4.50684437
_cell_length_b   7.04037784
_cell_length_c   7.78135825
_cell_angle_alpha   89.99959413
_cell_angle_beta   90.00000000
_cell_angle_gamma   90.00000000
_symmetry_Int_Tables_number   1
_chemical_formula_structural   SmAlPd
_chemical_formula_sum   'Sm4 Al4 Pd4'
_cell_volume   246.90161977
_cell_formula_units_Z   4
loop_
 _symmetry_equiv_pos_site_id
 _symmetry_equiv_pos_as_xyz
  1  'x, y, z'
loop_
 _atom_site_type_symbol
 _atom_site_label
 _atom_site_symmetry_multiplicity
 _atom_site_fract_x
 _atom_site_fract_y
 _atom_site_fract_z
 _atom_site_occupancy
  Sm  Sm0  1  0.25000000  0.03652187  0.32211063  1
  Sm  Sm1  1  0.25000000  0.53652828  0.17793457  1
  Sm  Sm2  1  0.75000000  0.96347813  0.67788937  1
  Sm  Sm3  1  0.75000000  0.46347172  0.82206543  1
  Al  Al4  1  0.25000000  0.14069185  0.93655316  1
  Al  Al5  1  0.25000000  0.64069526  0.56344804  1
  Al  Al6  1  0.75000000  0.85930815  0.06344684  1
  Al  Al7  1  0.75000000  0.35930474  0.43655196  1
  Pd  Pd8  1  0.25000000  0.27807404  0.61823797  1
  Pd  Pd9  1  0.25000000  0.77811744  0.88171875  1
  Pd  Pd10  1  0.75000000  0.72192596  0.38176203  1
  Pd  Pd11  1  0.75000000  0.22188256  0.11828125  1
