# generated using pymatgen
data_LaPrAl6
_symmetry_space_group_name_H-M   'P 1'
_cell_length_a   6.63204507
_cell_length_b   6.63204507
_cell_length_c   4.61589752
_cell_angle_alpha   90.00000000
_cell_angle_beta   90.00000000
_cell_angle_gamma   120.00000310
_symmetry_Int_Tables_number   1
_chemical_formula_structural   LaPrAl6
_chemical_formula_sum   'La1 Pr1 Al6'
_cell_volume   175.82544058
_cell_formula_units_Z   1
loop_
 _symmetry_equiv_pos_site_id
 _symmetry_equiv_pos_as_xyz
  1  'x, y, z'
loop_
 _atom_site_type_symbol
 _atom_site_label
 _atom_site_symmetry_multiplicity
 _atom_site_fract_x
 _atom_site_fract_y
 _atom_site_fract_z
 _atom_site_occupancy
  La  La0  1  0.66666700  0.33333300  0.50000000  1
  Pr  Pr1  1  0.33333300  0.66666700  -0.00000000  1
  Al  Al2  1  0.13717519  0.27435138  0.50000000  1
  Al  Al3  1  0.72564862  0.86282481  0.50000000  1
  Al  Al4  1  0.13717519  0.86282481  0.50000000  1
  Al  Al5  1  0.86359780  0.72719560  -0.00000000  1
  Al  Al6  1  0.27280440  0.13640220  0.00000000  1
  Al  Al7  1  0.86359780  0.13640220  -0.00000000  1
