# generated using pymatgen
data_TmSnRh
_symmetry_space_group_name_H-M   'P 1'
_cell_length_a   7.53799031
_cell_length_b   7.53799075
_cell_length_c   3.71093128
_cell_angle_alpha   90.00000000
_cell_angle_beta   90.00000000
_cell_angle_gamma   120.00000250
_symmetry_Int_Tables_number   1
_chemical_formula_structural   TmSnRh
_chemical_formula_sum   'Tm3 Sn3 Rh3'
_cell_volume   182.61006368
_cell_formula_units_Z   3
loop_
 _symmetry_equiv_pos_site_id
 _symmetry_equiv_pos_as_xyz
  1  'x, y, z'
loop_
 _atom_site_type_symbol
 _atom_site_label
 _atom_site_symmetry_multiplicity
 _atom_site_fract_x
 _atom_site_fract_y
 _atom_site_fract_z
 _atom_site_occupancy
  Tm  Tm0  1  -0.00000000  0.40303040  0.00000000  1
  Tm  Tm1  1  0.59696960  0.59696960  -0.00000000  1
  Tm  Tm2  1  0.40303040  -0.00000000  0.00000000  1
  Sn  Sn3  1  0.26594874  0.26594874  0.50000000  1
  Sn  Sn4  1  -0.00000000  0.73405126  0.50000000  1
  Sn  Sn5  1  0.73405126  -0.00000000  0.50000000  1
  Rh  Rh6  1  0.66666700  0.33333300  0.50000000  1
  Rh  Rh7  1  0.33333300  0.66666700  0.50000000  1
  Rh  Rh8  1  -0.00000000  -0.00000000  -0.00000000  1
