# generated using pymatgen
data_K2SiF6
_symmetry_space_group_name_H-M   'P 1'
_cell_length_a   5.57547982
_cell_length_b   5.57548346
_cell_length_c   9.11639127
_cell_angle_alpha   89.99998563
_cell_angle_beta   89.99993918
_cell_angle_gamma   120.00036976
_symmetry_Int_Tables_number   1
_chemical_formula_structural   K2SiF6
_chemical_formula_sum   'K4 Si2 F12'
_cell_volume   245.42384189
_cell_formula_units_Z   2
loop_
 _symmetry_equiv_pos_site_id
 _symmetry_equiv_pos_as_xyz
  1  'x, y, z'
loop_
 _atom_site_type_symbol
 _atom_site_label
 _atom_site_symmetry_multiplicity
 _atom_site_fract_x
 _atom_site_fract_y
 _atom_site_fract_z
 _atom_site_occupancy
  K  K0  1  0.00000085  0.00000067  0.31305146  1
  K  K1  1  -0.00000104  -0.00000090  0.81300849  1
  K  K2  1  0.33333280  0.66666600  0.59283522  1
  K  K3  1  0.66666630  0.33333376  0.09291652  1
  Si  Si4  1  0.66666677  0.33333313  0.47557380  1
  Si  Si5  1  0.33333316  0.66666654  0.97559838  1
  F  F6  1  0.95290912  0.47645548  0.36633990  1
  F  F7  1  0.47644105  0.95288162  0.86636379  1
  F  F8  1  0.47644011  0.52355990  0.86636363  1
  F  F9  1  0.52354641  0.47645438  0.36633926  1
  F  F10  1  0.52354433  0.04708988  0.36633938  1
  F  F11  1  0.04711788  0.52355868  0.86636354  1
  F  F12  1  0.62434691  0.81217422  0.08012017  1
  F  F13  1  0.81222842  0.62445469  0.58014216  1
  F  F14  1  0.81222706  0.18777350  0.58014218  1
  F  F15  1  0.18782678  0.81217259  0.08012012  1
  F  F16  1  0.18782540  0.37565280  0.08012036  1
  F  F17  1  0.37554569  0.18777207  0.58014165  1
