# generated using pymatgen
data_NClO
_symmetry_space_group_name_H-M   'P 1'
_cell_length_a   5.92504593
_cell_length_b   6.74192542
_cell_length_c   6.34004498
_cell_angle_alpha   110.22723820
_cell_angle_beta   90.00000000
_cell_angle_gamma   90.00000000
_symmetry_Int_Tables_number   1
_chemical_formula_structural   NClO
_chemical_formula_sum   'N4 Cl4 O4'
_cell_volume   237.64190956
_cell_formula_units_Z   4
loop_
 _symmetry_equiv_pos_site_id
 _symmetry_equiv_pos_as_xyz
  1  'x, y, z'
loop_
 _atom_site_type_symbol
 _atom_site_label
 _atom_site_symmetry_multiplicity
 _atom_site_fract_x
 _atom_site_fract_y
 _atom_site_fract_z
 _atom_site_occupancy
  N  N0  1  0.15342513  0.62257366  0.36002140  1
  N  N1  1  0.65342513  0.87742634  0.13997860  1
  N  N2  1  0.84657487  0.37742634  0.63997760  1
  N  N3  1  0.34657487  0.12257366  0.86002240  1
  Cl  Cl4  1  0.63393432  0.92258832  0.72566989  1
  Cl  Cl5  1  0.13393432  0.57741168  0.77433011  1
  Cl  Cl6  1  0.36606568  0.07741168  0.27433011  1
  Cl  Cl7  1  0.86606568  0.42258832  0.22566989  1
  O  O8  1  0.31545915  0.55572148  0.26899871  1
  O  O9  1  0.81545915  0.94427852  0.23100129  1
  O  O10  1  0.68454085  0.44427852  0.73100129  1
  O  O11  1  0.18454085  0.05572148  0.76899871  1
