# generated using pymatgen
data_LaAlAu
_symmetry_space_group_name_H-M   'P 1'
_cell_length_a   4.69567246
_cell_length_b   7.78029180
_cell_length_c   7.54780069
_cell_angle_alpha   90.00000000
_cell_angle_beta   90.00000000
_cell_angle_gamma   90.00000000
_symmetry_Int_Tables_number   1
_chemical_formula_structural   LaAlAu
_chemical_formula_sum   'La4 Al4 Au4'
_cell_volume   275.74910068
_cell_formula_units_Z   4
loop_
 _symmetry_equiv_pos_site_id
 _symmetry_equiv_pos_as_xyz
  1  'x, y, z'
loop_
 _atom_site_type_symbol
 _atom_site_label
 _atom_site_symmetry_multiplicity
 _atom_site_fract_x
 _atom_site_fract_y
 _atom_site_fract_z
 _atom_site_occupancy
  La  La0  1  0.25000000  0.01585830  0.31444444  1
  La  La1  1  0.25000000  0.51585830  0.18555556  1
  La  La2  1  0.75000000  0.98414064  0.68558138  1
  La  La3  1  0.75000000  0.48414064  0.81441862  1
  Al  Al4  1  0.25000000  0.17146508  0.91440258  1
  Al  Al5  1  0.25000000  0.67146508  0.58559742  1
  Al  Al6  1  0.75000000  0.82850565  0.08562546  1
  Al  Al7  1  0.75000000  0.32850565  0.41437454  1
  Au  Au8  1  0.25000000  0.31332698  0.59260138  1
  Au  Au9  1  0.25000000  0.81332698  0.90739862  1
  Au  Au10  1  0.75000000  0.68670336  0.40734545  1
  Au  Au11  1  0.75000000  0.18670336  0.09265455  1
