# generated using pymatgen
data_CaCdPt
_symmetry_space_group_name_H-M   'P 1'
_cell_length_a   4.30573501
_cell_length_b   7.24993804
_cell_length_c   8.54104201
_cell_angle_alpha   90.00000000
_cell_angle_beta   90.00000000
_cell_angle_gamma   90.00000000
_symmetry_Int_Tables_number   1
_chemical_formula_structural   CaCdPt
_chemical_formula_sum   'Ca4 Cd4 Pt4'
_cell_volume   266.61983252
_cell_formula_units_Z   4
loop_
 _symmetry_equiv_pos_site_id
 _symmetry_equiv_pos_as_xyz
  1  'x, y, z'
loop_
 _atom_site_type_symbol
 _atom_site_label
 _atom_site_symmetry_multiplicity
 _atom_site_fract_x
 _atom_site_fract_y
 _atom_site_fract_z
 _atom_site_occupancy
  Ca  Ca0  1  0.75000000  0.46513208  0.17694650  1
  Ca  Ca1  1  0.75000000  0.96513208  0.32305350  1
  Ca  Ca2  1  0.25000000  0.53486792  0.82305350  1
  Ca  Ca3  1  0.25000000  0.03486792  0.67694650  1
  Cd  Cd4  1  0.75000000  0.35718679  0.56286450  1
  Cd  Cd5  1  0.75000000  0.85718679  0.93713550  1
  Cd  Cd6  1  0.25000000  0.64281321  0.43713550  1
  Cd  Cd7  1  0.25000000  0.14281321  0.06286450  1
  Pt  Pt8  1  0.75000000  0.24135860  0.87150808  1
  Pt  Pt9  1  0.75000000  0.74135860  0.62849192  1
  Pt  Pt10  1  0.25000000  0.75864140  0.12849192  1
  Pt  Pt11  1  0.25000000  0.25864140  0.37150808  1
