# generated using pymatgen
data_Er3Pb
_symmetry_space_group_name_H-M   'P 1'
_cell_length_a   6.79603424
_cell_length_b   6.79603567
_cell_length_c   5.58611267
_cell_angle_alpha   90.00000000
_cell_angle_beta   90.00000000
_cell_angle_gamma   120.00000120
_symmetry_Int_Tables_number   1
_chemical_formula_structural   Er3Pb
_chemical_formula_sum   'Er6 Pb2'
_cell_volume   223.43516513
_cell_formula_units_Z   2
loop_
 _symmetry_equiv_pos_site_id
 _symmetry_equiv_pos_as_xyz
  1  'x, y, z'
loop_
 _atom_site_type_symbol
 _atom_site_label
 _atom_site_symmetry_multiplicity
 _atom_site_fract_x
 _atom_site_fract_y
 _atom_site_fract_z
 _atom_site_occupancy
  Er  Er0  1  0.83112386  0.16887614  0.75000000  1
  Er  Er1  1  0.33775329  0.16887614  0.75000000  1
  Er  Er2  1  0.83112386  0.66224671  0.75000000  1
  Er  Er3  1  0.16887614  0.83112386  0.25000000  1
  Er  Er4  1  0.66224671  0.83112386  0.25000000  1
  Er  Er5  1  0.16887614  0.33775329  0.25000000  1
  Pb  Pb6  1  0.66666700  0.33333300  0.25000000  1
  Pb  Pb7  1  0.33333300  0.66666700  0.75000000  1
