# generated using pymatgen
data_Th(BOs)2
_symmetry_space_group_name_H-M   'P 1'
_cell_length_a   6.81143717
_cell_length_b   6.05412780
_cell_length_c   5.61197941
_cell_angle_alpha   71.33112105
_cell_angle_beta   57.35746354
_cell_angle_gamma   51.31141541
_symmetry_Int_Tables_number   1
_chemical_formula_structural   Th(BOs)2
_chemical_formula_sum   'Th2 B4 Os4'
_cell_volume   152.05558216
_cell_formula_units_Z   2
loop_
 _symmetry_equiv_pos_site_id
 _symmetry_equiv_pos_as_xyz
  1  'x, y, z'
loop_
 _atom_site_type_symbol
 _atom_site_label
 _atom_site_symmetry_multiplicity
 _atom_site_fract_x
 _atom_site_fract_y
 _atom_site_fract_z
 _atom_site_occupancy
  Th  Th0  1  -0.00000000  0.00000000  -0.00000000  1
  Th  Th1  1  0.25000000  0.25000000  0.25000000  1
  B  B2  1  0.31676709  0.68323291  0.31676709  1
  B  B3  1  0.68323291  0.31676709  0.68323291  1
  B  B4  1  0.56676709  0.93323291  0.56676709  1
  B  B5  1  0.93323291  0.56676709  0.93323291  1
  Os  Os6  1  0.63742329  0.63742329  0.36257671  1
  Os  Os7  1  0.36257671  0.36257671  0.63742329  1
  Os  Os8  1  0.61257671  0.61257671  0.88742329  1
  Os  Os9  1  0.88742329  0.88742329  0.61257671  1
