# generated using pymatgen
data_SnIr2Se5
_symmetry_space_group_name_H-M   'P 1'
_cell_length_a   3.77810788
_cell_length_b   7.72711723
_cell_length_c   12.92179031
_cell_angle_alpha   78.14076232
_cell_angle_beta   90.00000000
_cell_angle_gamma   90.00000000
_symmetry_Int_Tables_number   1
_chemical_formula_structural   SnIr2Se5
_chemical_formula_sum   'Sn2 Ir4 Se10'
_cell_volume   369.18526476
_cell_formula_units_Z   2
loop_
 _symmetry_equiv_pos_site_id
 _symmetry_equiv_pos_as_xyz
  1  'x, y, z'
loop_
 _atom_site_type_symbol
 _atom_site_label
 _atom_site_symmetry_multiplicity
 _atom_site_fract_x
 _atom_site_fract_y
 _atom_site_fract_z
 _atom_site_occupancy
  Sn  Sn0  1  0.50000000  0.16526497  0.66637665  1
  Sn  Sn1  1  0.50000000  0.83473503  0.33362335  1
  Ir  Ir2  1  0.00000000  0.25518299  0.14817155  1
  Ir  Ir3  1  -0.00000000  0.74481701  0.85182845  1
  Ir  Ir4  1  0.50000000  0.75065349  0.14591512  1
  Ir  Ir5  1  0.50000000  0.24934651  0.85408488  1
  Se  Se6  1  -0.00000000  0.95656009  0.10315461  1
  Se  Se7  1  -0.00000000  0.04343991  0.89684539  1
  Se  Se8  1  0.00000000  0.46068822  0.78385623  1
  Se  Se9  1  -0.00000000  0.53931178  0.21614377  1
  Se  Se10  1  0.50000000  0.66498946  0.97325488  1
  Se  Se11  1  0.50000000  0.33501054  0.02674512  1
  Se  Se12  1  0.50000000  0.18607796  0.28090216  1
  Se  Se13  1  0.50000000  0.81392204  0.71909784  1
  Se  Se14  1  0.00000000  0.24336106  0.53470683  1
  Se  Se15  1  0.00000000  0.75663894  0.46529317  1
