# generated using pymatgen
data_PrAlNi
_symmetry_space_group_name_H-M   'P 1'
_cell_length_a   7.04690891
_cell_length_b   7.04690840
_cell_length_c   4.09639860
_cell_angle_alpha   90.00000000
_cell_angle_beta   90.00000000
_cell_angle_gamma   120.00002238
_symmetry_Int_Tables_number   1
_chemical_formula_structural   PrAlNi
_chemical_formula_sum   'Pr3 Al3 Ni3'
_cell_volume   176.16921805
_cell_formula_units_Z   3
loop_
 _symmetry_equiv_pos_site_id
 _symmetry_equiv_pos_as_xyz
  1  'x, y, z'
loop_
 _atom_site_type_symbol
 _atom_site_label
 _atom_site_symmetry_multiplicity
 _atom_site_fract_x
 _atom_site_fract_y
 _atom_site_fract_z
 _atom_site_occupancy
  Pr  Pr0  1  -0.00000000  0.42001219  0.50000000  1
  Pr  Pr1  1  0.57998781  0.57998781  0.50000000  1
  Pr  Pr2  1  0.42001219  -0.00000000  0.50000000  1
  Al  Al3  1  -0.00000000  0.77586474  0.00000000  1
  Al  Al4  1  0.22413526  0.22413426  -0.00000000  1
  Al  Al5  1  0.77586574  -0.00000000  -0.00000000  1
  Ni  Ni6  1  0.33333300  0.66666700  -0.00000000  1
  Ni  Ni7  1  0.66666700  0.33333300  -0.00000000  1
  Ni  Ni8  1  -0.00000000  0.00000000  0.50000000  1
