# generated using pymatgen
data_HfCo3B2
_symmetry_space_group_name_H-M   'P 1'
_cell_length_a   5.64513592
_cell_length_b   5.64513581
_cell_length_c   5.64513601
_cell_angle_alpha   94.44689280
_cell_angle_beta   94.44689511
_cell_angle_gamma   94.44690407
_symmetry_Int_Tables_number   1
_chemical_formula_structural   HfCo3B2
_chemical_formula_sum   'Hf3 Co9 B6'
_cell_volume   178.18245849
_cell_formula_units_Z   3
loop_
 _symmetry_equiv_pos_site_id
 _symmetry_equiv_pos_as_xyz
  1  'x, y, z'
loop_
 _atom_site_type_symbol
 _atom_site_label
 _atom_site_symmetry_multiplicity
 _atom_site_fract_x
 _atom_site_fract_y
 _atom_site_fract_z
 _atom_site_occupancy
  Hf  Hf0  1  0.00000000  0.00000000  0.00000000  1
  Hf  Hf1  1  0.67053824  0.67053824  0.67053824  1
  Hf  Hf2  1  0.32946176  0.32946176  0.32946176  1
  Co  Co3  1  0.00000000  0.50000000  0.00000000  1
  Co  Co4  1  0.50000000  0.00000000  0.00000000  1
  Co  Co5  1  0.00000000  0.00000000  0.50000000  1
  Co  Co6  1  0.19544475  0.69375578  0.69375978  1
  Co  Co7  1  0.69375578  0.69375978  0.19544475  1
  Co  Co8  1  0.69375978  0.19544475  0.69375578  1
  Co  Co9  1  0.80455425  0.30624422  0.30624022  1
  Co  Co10  1  0.30624422  0.30624022  0.80455425  1
  Co  Co11  1  0.30624022  0.80455425  0.30624422  1
  B  B12  1  0.00000408  0.37563498  0.62435724  1
  B  B13  1  0.37563498  0.62435724  0.00000408  1
  B  B14  1  0.62435724  0.00000408  0.37563498  1
  B  B15  1  0.99999592  0.62436502  0.37564276  1
  B  B16  1  0.62436502  0.37564276  0.99999592  1
  B  B17  1  0.37564276  0.99999592  0.62436502  1
