# generated using pymatgen
data_YZnSn2
_symmetry_space_group_name_H-M   'P 1'
_cell_length_a   4.33599419
_cell_length_b   4.33599419
_cell_length_c   9.90182135
_cell_angle_alpha   90.00000000
_cell_angle_beta   90.00000000
_cell_angle_gamma   90.00000000
_symmetry_Int_Tables_number   1
_chemical_formula_structural   YZnSn2
_chemical_formula_sum   'Y2 Zn2 Sn4'
_cell_volume   186.16261452
_cell_formula_units_Z   2
loop_
 _symmetry_equiv_pos_site_id
 _symmetry_equiv_pos_as_xyz
  1  'x, y, z'
loop_
 _atom_site_type_symbol
 _atom_site_label
 _atom_site_symmetry_multiplicity
 _atom_site_fract_x
 _atom_site_fract_y
 _atom_site_fract_z
 _atom_site_occupancy
  Y  Y0  1  0.00000000  0.50000000  0.75082735  1
  Y  Y1  1  0.50000000  0.00000000  0.24917265  1
  Zn  Zn2  1  -0.00000000  0.00000000  0.50000000  1
  Zn  Zn3  1  0.50000000  0.50000000  0.50000000  1
  Sn  Sn4  1  0.00000000  0.00000000  -0.00000000  1
  Sn  Sn5  1  0.50000000  0.50000000  -0.00000000  1
  Sn  Sn6  1  0.00000000  0.50000000  0.32240806  1
  Sn  Sn7  1  0.50000000  -0.00000000  0.67759194  1
