# generated using pymatgen
data_U(CuSi)2
_symmetry_space_group_name_H-M   'P 1'
_cell_length_a   3.96312430
_cell_length_b   3.96312340
_cell_length_c   5.75565829
_cell_angle_alpha   110.13790083
_cell_angle_beta   110.13789354
_cell_angle_gamma   89.99999699
_symmetry_Int_Tables_number   1
_chemical_formula_structural   U(CuSi)2
_chemical_formula_sum   'U1 Cu2 Si2'
_cell_volume   78.96159598
_cell_formula_units_Z   1
loop_
 _symmetry_equiv_pos_site_id
 _symmetry_equiv_pos_as_xyz
  1  'x, y, z'
loop_
 _atom_site_type_symbol
 _atom_site_label
 _atom_site_symmetry_multiplicity
 _atom_site_fract_x
 _atom_site_fract_y
 _atom_site_fract_z
 _atom_site_occupancy
  U  U0  1  0.00000000  -0.00000000  -0.00000000  1
  Cu  Cu1  1  0.25000000  0.75000000  0.50000000  1
  Cu  Cu2  1  0.75000000  0.25000000  0.50000000  1
  Si  Si3  1  0.61899828  0.61899828  0.23799656  1
  Si  Si4  1  0.38100172  0.38100172  0.76200344  1
