# generated using pymatgen
data_Cu(PtS2)2
_symmetry_space_group_name_H-M   'P 1'
_cell_length_a   6.93133140
_cell_length_b   6.23295809
_cell_length_c   6.40655260
_cell_angle_alpha   64.88880548
_cell_angle_beta   90.00000000
_cell_angle_gamma   90.00000000
_symmetry_Int_Tables_number   1
_chemical_formula_structural   Cu(PtS2)2
_chemical_formula_sum   'Cu2 Pt4 S8'
_cell_volume   250.62071217
_cell_formula_units_Z   2
loop_
 _symmetry_equiv_pos_site_id
 _symmetry_equiv_pos_as_xyz
  1  'x, y, z'
loop_
 _atom_site_type_symbol
 _atom_site_label
 _atom_site_symmetry_multiplicity
 _atom_site_fract_x
 _atom_site_fract_y
 _atom_site_fract_z
 _atom_site_occupancy
  Cu  Cu0  1  0.00000000  0.34084737  0.35628424  1
  Cu  Cu1  1  0.00000000  0.65915263  0.64371576  1
  Pt  Pt2  1  0.24828716  0.00000000  0.00000000  1
  Pt  Pt3  1  0.75171284  0.00000000  0.00000000  1
  Pt  Pt4  1  0.50000000  0.00000000  0.50000000  1
  Pt  Pt5  1  0.50000000  0.50000000  0.00000000  1
  S  S6  1  0.00000000  0.74745890  0.24519676  1
  S  S7  1  0.00000000  0.25254110  0.75480324  1
  S  S8  1  0.50000000  0.73752010  0.21772684  1
  S  S9  1  0.50000000  0.26247990  0.78227316  1
  S  S10  1  0.26759211  0.21721186  0.23077934  1
  S  S11  1  0.26759211  0.78278814  0.76922066  1
  S  S12  1  0.73240789  0.78278814  0.76922066  1
  S  S13  1  0.73240789  0.21721186  0.23077934  1
