# generated using pymatgen
data_CeFe2
_symmetry_space_group_name_H-M   'P 1'
_cell_length_a   5.19755103
_cell_length_b   5.19753370
_cell_length_c   5.19753072
_cell_angle_alpha   60.00083097
_cell_angle_beta   60.00096642
_cell_angle_gamma   60.00090523
_symmetry_Int_Tables_number   1
_chemical_formula_structural   CeFe2
_chemical_formula_sum   'Ce2 Fe4'
_cell_volume   99.28577125
_cell_formula_units_Z   2
loop_
 _symmetry_equiv_pos_site_id
 _symmetry_equiv_pos_as_xyz
  1  'x, y, z'
loop_
 _atom_site_type_symbol
 _atom_site_label
 _atom_site_symmetry_multiplicity
 _atom_site_fract_x
 _atom_site_fract_y
 _atom_site_fract_z
 _atom_site_occupancy
  Ce  Ce0  1  0.12500081  0.12499567  0.12500287  1
  Ce  Ce1  1  0.87499919  0.87500433  0.87499713  1
  Fe  Fe2  1  0.50000000  0.00000000  0.50000000  1
  Fe  Fe3  1  0.00000000  0.50000000  0.50000000  1
  Fe  Fe4  1  0.50000000  0.50000000  0.50000000  1
  Fe  Fe5  1  0.50000000  0.50000000  -0.00000000  1
