# generated using pymatgen
data_Cu6As4S9
_symmetry_space_group_name_H-M   'P 1'
_cell_length_a   9.06084931
_cell_length_b   9.07399542
_cell_length_c   9.82549828
_cell_angle_alpha   107.75217701
_cell_angle_beta   90.10470353
_cell_angle_gamma   109.42671380
_symmetry_Int_Tables_number   1
_chemical_formula_structural   Cu6As4S9
_chemical_formula_sum   'Cu12 As8 S18'
_cell_volume   720.75730191
_cell_formula_units_Z   2
loop_
 _symmetry_equiv_pos_site_id
 _symmetry_equiv_pos_as_xyz
  1  'x, y, z'
loop_
 _atom_site_type_symbol
 _atom_site_label
 _atom_site_symmetry_multiplicity
 _atom_site_fract_x
 _atom_site_fract_y
 _atom_site_fract_z
 _atom_site_occupancy
  Cu  Cu0  1  0.51156701  0.60538499  0.98734442  1
  Cu  Cu1  1  0.20266201  0.72101486  0.60189991  1
  Cu  Cu2  1  0.33212253  0.03380836  0.38944093  1
  Cu  Cu3  1  0.65714328  0.07286430  0.19434269  1
  Cu  Cu4  1  0.61015177  0.91287550  0.79716855  1
  Cu  Cu5  1  0.93897767  0.83462060  0.19192948  1
  Cu  Cu6  1  0.05808869  0.27825139  0.39743864  1
  Cu  Cu7  1  0.17090538  0.55930655  0.18426216  1
  Cu  Cu8  1  0.10714560  0.41000528  0.79370239  1
  Cu  Cu9  1  0.96401178  0.96457218  0.60256436  1
  Cu  Cu10  1  0.75693593  0.36628460  0.98760645  1
  Cu  Cu11  1  0.58187510  0.76144362  0.40802567  1
  As  As12  1  0.82256736  0.53943534  0.42014963  1
  As  As13  1  0.71745252  0.23402614  0.57547513  1
  As  As14  1  0.85313221  0.65453910  0.79268769  1
  As  As15  1  0.49823185  0.48318387  0.58911218  1
  As  As16  1  0.35378672  0.15511194  0.79525413  1
  As  As17  1  0.27638867  0.90152291  0.00953279  1
  As  As18  1  0.40951114  0.31885496  0.18004353  1
  As  As19  1  0.04272538  0.13003866  0.01218710  1
  S  S20  1  0.45385095  0.71141083  0.59669962  1
  S  S21  1  0.77283277  0.62765019  -0.00055435  1
  S  S22  1  0.83467820  0.77631363  0.38844820  1
  S  S23  1  0.57496690  0.00823143  0.39723680  1
  S  S24  1  0.91104461  0.07516603  0.19390355  1
  S  S25  1  0.00546270  0.35689680  0.99374428  1
  S  S26  1  0.86481794  0.92210493  0.80492889  1
  S  S27  1  0.18269978  0.81804993  0.19450908  1
  S  S28  1  0.36039625  0.41464414  0.78308839  1
  S  S29  1  0.22212414  0.97524151  0.58794151  1
  S  S30  1  0.06530592  0.53091021  0.39131308  1
  S  S31  1  0.95633323  0.20956867  0.59183634  1
  S  S32  1  0.11896729  0.66979030  0.80701399  1
  S  S33  1  0.61601033  0.16132343  0.78443037  1
  S  S34  1  0.42610385  0.57338537  0.19888776  1
  S  S35  1  0.50940806  0.86137597  0.99840851  1
  S  S36  1  0.66946427  0.32877580  0.19581206  1
  S  S37  1  0.31215119  0.28001466  0.40018109  1
