# generated using pymatgen
data_HoSiIr
_symmetry_space_group_name_H-M   'P 1'
_cell_length_a   4.21184805
_cell_length_b   6.81969345
_cell_length_c   7.37759638
_cell_angle_alpha   90.00000000
_cell_angle_beta   90.00000000
_cell_angle_gamma   90.00000000
_symmetry_Int_Tables_number   1
_chemical_formula_structural   HoSiIr
_chemical_formula_sum   'Ho4 Si4 Ir4'
_cell_volume   211.91048228
_cell_formula_units_Z   4
loop_
 _symmetry_equiv_pos_site_id
 _symmetry_equiv_pos_as_xyz
  1  'x, y, z'
loop_
 _atom_site_type_symbol
 _atom_site_label
 _atom_site_symmetry_multiplicity
 _atom_site_fract_x
 _atom_site_fract_y
 _atom_site_fract_z
 _atom_site_occupancy
  Ho  Ho0  1  0.75000000  0.50009622  0.18729806  1
  Ho  Ho1  1  0.25000000  0.99990378  0.68729806  1
  Ho  Ho2  1  0.75000000  0.00009622  0.31270194  1
  Ho  Ho3  1  0.25000000  0.49990378  0.81270194  1
  Si  Si4  1  0.25000000  0.79899271  0.11043649  1
  Si  Si5  1  0.25000000  0.29899271  0.38956351  1
  Si  Si6  1  0.75000000  0.20100729  0.88956351  1
  Si  Si7  1  0.75000000  0.70100729  0.61043649  1
  Ir  Ir8  1  0.25000000  0.65642205  0.43337673  1
  Ir  Ir9  1  0.25000000  0.15642205  0.06662327  1
  Ir  Ir10  1  0.75000000  0.84357795  0.93337673  1
  Ir  Ir11  1  0.75000000  0.34357795  0.56662327  1
