# generated using pymatgen
data_K2UCl5
_symmetry_space_group_name_H-M   'P 1'
_cell_length_a   8.00052345
_cell_length_b   8.80504678
_cell_length_c   12.76867009
_cell_angle_alpha   90.00000000
_cell_angle_beta   90.00000000
_cell_angle_gamma   90.00000000
_symmetry_Int_Tables_number   1
_chemical_formula_structural   K2UCl5
_chemical_formula_sum   'K8 U4 Cl20'
_cell_volume   899.48875051
_cell_formula_units_Z   4
loop_
 _symmetry_equiv_pos_site_id
 _symmetry_equiv_pos_as_xyz
  1  'x, y, z'
loop_
 _atom_site_type_symbol
 _atom_site_label
 _atom_site_symmetry_multiplicity
 _atom_site_fract_x
 _atom_site_fract_y
 _atom_site_fract_z
 _atom_site_occupancy
  K  K0  1  0.95162514  0.00484730  0.82818512  1
  K  K1  1  0.45162514  0.99515270  0.67181488  1
  K  K2  1  0.04837486  0.50484730  0.17181488  1
  K  K3  1  0.54837486  0.49515270  0.32818512  1
  K  K4  1  0.04837486  0.99515270  0.17181488  1
  K  K5  1  0.54837486  0.00484730  0.32818512  1
  K  K6  1  0.95162514  0.49515270  0.82818512  1
  K  K7  1  0.45162514  0.50484730  0.67181488  1
  U  U8  1  0.57511273  0.75000000  0.00459878  1
  U  U9  1  0.07511273  0.25000000  0.49540122  1
  U  U10  1  0.42488727  0.25000000  0.99540122  1
  U  U11  1  0.92488727  0.75000000  0.50459878  1
  Cl  Cl12  1  0.33633568  0.95714354  0.91851584  1
  Cl  Cl13  1  0.83633568  0.04285646  0.58148416  1
  Cl  Cl14  1  0.66366432  0.45714354  0.08148416  1
  Cl  Cl15  1  0.16366432  0.54285646  0.41851584  1
  Cl  Cl16  1  0.66366432  0.04285646  0.08148416  1
  Cl  Cl17  1  0.16366432  0.95714354  0.41851584  1
  Cl  Cl18  1  0.33633568  0.54285646  0.91851584  1
  Cl  Cl19  1  0.83633568  0.45714354  0.58148416  1
  Cl  Cl20  1  0.36864445  0.75000000  0.18125462  1
  Cl  Cl21  1  0.86864445  0.25000000  0.31874538  1
  Cl  Cl22  1  0.63135555  0.25000000  0.81874538  1
  Cl  Cl23  1  0.13135555  0.75000000  0.68125462  1
  Cl  Cl24  1  0.07229334  0.25000000  0.99369737  1
  Cl  Cl25  1  0.57229334  0.75000000  0.50630263  1
  Cl  Cl26  1  0.92770666  0.75000000  0.00630263  1
  Cl  Cl27  1  0.42770666  0.25000000  0.49369737  1
  Cl  Cl28  1  0.66784991  0.75000000  0.79250653  1
  Cl  Cl29  1  0.16784991  0.25000000  0.70749347  1
  Cl  Cl30  1  0.33215009  0.25000000  0.20749347  1
  Cl  Cl31  1  0.83215009  0.75000000  0.29250653  1
