# generated using pymatgen
data_Nd4Ge7
_symmetry_space_group_name_H-M   'P 1'
_cell_length_a   6.03140039
_cell_length_b   7.60319809
_cell_length_c   12.06374994
_cell_angle_alpha   90.00000000
_cell_angle_beta   90.00000000
_cell_angle_gamma   113.36803510
_symmetry_Int_Tables_number   1
_chemical_formula_structural   Nd4Ge7
_chemical_formula_sum   'Nd8 Ge14'
_cell_volume   507.84144607
_cell_formula_units_Z   2
loop_
 _symmetry_equiv_pos_site_id
 _symmetry_equiv_pos_as_xyz
  1  'x, y, z'
loop_
 _atom_site_type_symbol
 _atom_site_label
 _atom_site_symmetry_multiplicity
 _atom_site_fract_x
 _atom_site_fract_y
 _atom_site_fract_z
 _atom_site_occupancy
  Nd  Nd0  1  0.51292772  0.00000000  0.50000000  1
  Nd  Nd1  1  0.48707228  -0.00000000  -0.00000000  1
  Nd  Nd2  1  0.99681950  0.99364099  0.25000000  1
  Nd  Nd3  1  0.00318050  0.00635901  0.75000000  1
  Nd  Nd4  1  0.51010894  0.48978131  0.61913317  1
  Nd  Nd5  1  0.02032863  0.51021869  0.38086683  1
  Nd  Nd6  1  0.48989106  0.51021869  0.11913317  1
  Nd  Nd7  1  0.97967137  0.48978131  0.88086683  1
  Ge  Ge8  1  0.43511852  0.87023704  0.25000000  1
  Ge  Ge9  1  0.56488148  0.12976296  0.75000000  1
  Ge  Ge10  1  0.52297020  0.69988113  0.83748044  1
  Ge  Ge11  1  0.82308806  0.30011887  0.16251956  1
  Ge  Ge12  1  0.47702980  0.30011887  0.33748044  1
  Ge  Ge13  1  0.17691094  0.69988113  0.66251956  1
  Ge  Ge14  1  0.42323962  0.34291114  0.87151546  1
  Ge  Ge15  1  0.08032747  0.65708886  0.12848454  1
  Ge  Ge16  1  0.10567106  0.17575030  0.49010651  1
  Ge  Ge17  1  0.92992177  0.82424970  0.50989349  1
  Ge  Ge18  1  0.89432894  0.82424970  0.99010651  1
  Ge  Ge19  1  0.07007823  0.17575030  0.00989349  1
  Ge  Ge20  1  0.91967253  0.34291114  0.62848454  1
  Ge  Ge21  1  0.57676038  0.65708886  0.37151546  1
