# generated using pymatgen
data_AsS3(ClF2)3
_symmetry_space_group_name_H-M   'P 1'
_cell_length_a   7.63235857
_cell_length_b   7.93469085
_cell_length_c   10.03181704
_cell_angle_alpha   82.75287241
_cell_angle_beta   112.64583072
_cell_angle_gamma   114.97137663
_symmetry_Int_Tables_number   1
_chemical_formula_structural   AsS3(ClF2)3
_chemical_formula_sum   'As2 S6 Cl6 F12'
_cell_volume   507.79640586
_cell_formula_units_Z   2
loop_
 _symmetry_equiv_pos_site_id
 _symmetry_equiv_pos_as_xyz
  1  'x, y, z'
loop_
 _atom_site_type_symbol
 _atom_site_label
 _atom_site_symmetry_multiplicity
 _atom_site_fract_x
 _atom_site_fract_y
 _atom_site_fract_z
 _atom_site_occupancy
  As  As0  1  0.79318426  0.74449016  0.75210125  1
  As  As1  1  0.20681574  0.25550984  0.24789875  1
  S  S2  1  0.54849113  0.23981601  0.02929437  1
  S  S3  1  0.33429047  0.83197742  0.07317161  1
  S  S4  1  0.08341411  0.29930659  0.60301590  1
  S  S5  1  0.91658589  0.70069341  0.39698410  1
  S  S6  1  0.45150887  0.76018399  0.97070563  1
  S  S7  1  0.66570953  0.16802258  0.92682839  1
  Cl  Cl8  1  0.19315895  0.72445314  0.53184202  1
  Cl  Cl9  1  0.48387065  0.83104184  0.29083977  1
  Cl  Cl10  1  0.80684105  0.27554686  0.46815798  1
  Cl  Cl11  1  0.08382166  0.32017350  0.79760513  1
  Cl  Cl12  1  0.51612935  0.16895816  0.70916023  1
  Cl  Cl13  1  0.91617834  0.67982650  0.20239487  1
  F  F14  1  0.70660293  0.87466214  0.60843791  1
  F  F15  1  0.53548721  0.60490991  0.73486271  1
  F  F16  1  0.05075844  0.88443970  0.77144467  1
  F  F17  1  0.22029845  0.40483856  0.36864834  1
  F  F18  1  0.46451279  0.39509009  0.26513729  1
  F  F19  1  0.94924156  0.11556030  0.22855533  1
  F  F20  1  0.77970155  0.59516144  0.63135166  1
  F  F21  1  0.87797311  0.61260725  0.89611398  1
  F  F22  1  0.19258604  0.10654945  0.12662836  1
  F  F23  1  0.12202689  0.38739275  0.10388602  1
  F  F24  1  0.29339707  0.12533786  0.39156209  1
  F  F25  1  0.80741396  0.89345055  0.87337164  1
