# generated using pymatgen
data_Zr3(Cu2Si3)2
_symmetry_space_group_name_H-M   'P 1'
_cell_length_a   3.71291865
_cell_length_b   3.71291872
_cell_length_c   14.31151115
_cell_angle_alpha   97.45821338
_cell_angle_beta   97.45821117
_cell_angle_gamma   89.99249607
_symmetry_Int_Tables_number   1
_chemical_formula_structural   Zr3(Cu2Si3)2
_chemical_formula_sum   'Zr3 Cu4 Si6'
_cell_volume   193.94289335
_cell_formula_units_Z   1
loop_
 _symmetry_equiv_pos_site_id
 _symmetry_equiv_pos_as_xyz
  1  'x, y, z'
loop_
 _atom_site_type_symbol
 _atom_site_label
 _atom_site_symmetry_multiplicity
 _atom_site_fract_x
 _atom_site_fract_y
 _atom_site_fract_z
 _atom_site_occupancy
  Zr  Zr0  1  0.00000070  0.00000073  0.00000140  1
  Zr  Zr1  1  0.67400219  0.67400225  0.34911718  1
  Zr  Zr2  1  0.32599541  0.32599527  0.65087883  1
  Cu  Cu3  1  0.41157704  0.91161345  0.81955122  1
  Cu  Cu4  1  0.91161336  0.41157700  0.81955113  1
  Cu  Cu5  1  0.58842413  0.08838793  0.18045038  1
  Cu  Cu6  1  0.08838789  0.58842410  0.18045039  1
  Si  Si7  1  0.25001346  0.74998650  0.50000015  1
  Si  Si8  1  0.74998649  0.25001348  0.50000014  1
  Si  Si9  1  0.54005728  0.54005727  0.08216346  1
  Si  Si10  1  0.45994297  0.45994296  0.91783697  1
  Si  Si11  1  0.14438930  0.14438919  0.29030378  1
  Si  Si12  1  0.85560976  0.85560986  0.70969498  1
