# generated using pymatgen
data_Dy(MnGe)6
_symmetry_space_group_name_H-M   'P 1'
_cell_length_a   5.15873362
_cell_length_b   5.15874428
_cell_length_c   8.16858354
_cell_angle_alpha   90.00000000
_cell_angle_beta   90.00000000
_cell_angle_gamma   119.99945228
_symmetry_Int_Tables_number   1
_chemical_formula_structural   Dy(MnGe)6
_chemical_formula_sum   'Dy1 Mn6 Ge6'
_cell_volume   188.26382891
_cell_formula_units_Z   1
loop_
 _symmetry_equiv_pos_site_id
 _symmetry_equiv_pos_as_xyz
  1  'x, y, z'
loop_
 _atom_site_type_symbol
 _atom_site_label
 _atom_site_symmetry_multiplicity
 _atom_site_fract_x
 _atom_site_fract_y
 _atom_site_fract_z
 _atom_site_occupancy
  Dy  Dy0  1  -0.00000000  -0.00000000  -0.00000000  1
  Mn  Mn1  1  -0.00000000  0.50000000  0.74831792  1
  Mn  Mn2  1  0.50000000  -0.00000000  0.25168224  1
  Mn  Mn3  1  0.50000000  0.50000000  0.25168145  1
  Mn  Mn4  1  -0.00000000  0.50000000  0.25168208  1
  Mn  Mn5  1  0.50000000  -0.00000000  0.74831776  1
  Mn  Mn6  1  0.50000000  0.50000000  0.74831855  1
  Ge  Ge7  1  -0.00000000  -0.00000000  0.65600834  1
  Ge  Ge8  1  0.33334841  0.66667154  -0.00000000  1
  Ge  Ge9  1  0.66665159  0.33332846  -0.00000000  1
  Ge  Ge10  1  0.33334873  0.66666979  0.50000000  1
  Ge  Ge11  1  0.66665127  0.33333021  0.50000000  1
  Ge  Ge12  1  -0.00000000  -0.00000000  0.34399166  1
