# generated using pymatgen
data_Eu(AlGa)2
_symmetry_space_group_name_H-M   'P 1'
_cell_length_a   4.27230449
_cell_length_b   4.27230380
_cell_length_c   6.25806127
_cell_angle_alpha   109.95878783
_cell_angle_beta   109.95878678
_cell_angle_gamma   89.99999240
_symmetry_Int_Tables_number   1
_chemical_formula_structural   Eu(AlGa)2
_chemical_formula_sum   'Eu1 Al2 Ga2'
_cell_volume   100.03520566
_cell_formula_units_Z   1
loop_
 _symmetry_equiv_pos_site_id
 _symmetry_equiv_pos_as_xyz
  1  'x, y, z'
loop_
 _atom_site_type_symbol
 _atom_site_label
 _atom_site_symmetry_multiplicity
 _atom_site_fract_x
 _atom_site_fract_y
 _atom_site_fract_z
 _atom_site_occupancy
  Eu  Eu0  1  -0.00000000  0.00000000  -0.00000000  1
  Al  Al1  1  0.25000000  0.75000000  0.50000000  1
  Al  Al2  1  0.75000000  0.25000000  0.50000000  1
  Ga  Ga3  1  0.61412119  0.61412119  0.22824337  1
  Ga  Ga4  1  0.38587881  0.38587881  0.77175663  1
