# generated using pymatgen
data_Cr4InCuSe8
_symmetry_space_group_name_H-M   'P 1'
_cell_length_a   7.52273578
_cell_length_b   7.52273578
_cell_length_c   7.52273578
_cell_angle_alpha   60.00000000
_cell_angle_beta   60.00000000
_cell_angle_gamma   60.00000000
_symmetry_Int_Tables_number   1
_chemical_formula_structural   Cr4InCuSe8
_chemical_formula_sum   'Cr4 In1 Cu1 Se8'
_cell_volume   301.03183551
_cell_formula_units_Z   1
loop_
 _symmetry_equiv_pos_site_id
 _symmetry_equiv_pos_as_xyz
  1  'x, y, z'
loop_
 _atom_site_type_symbol
 _atom_site_label
 _atom_site_symmetry_multiplicity
 _atom_site_fract_x
 _atom_site_fract_y
 _atom_site_fract_z
 _atom_site_occupancy
  Cr  Cr0  1  0.62044215  0.13867254  0.62044215  1
  Cr  Cr1  1  0.13867254  0.62044215  0.62044215  1
  Cr  Cr2  1  0.62044215  0.62044215  0.13867254  1
  Cr  Cr3  1  0.62044215  0.62044215  0.62044215  1
  In  In4  1  -0.00000000  -0.00000000  0.00000000  1
  Cu  Cu5  1  0.25000000  0.25000000  0.25000000  1
  Se  Se6  1  0.38307450  0.38307450  0.38307450  1
  Se  Se7  1  0.86086650  0.86086650  0.41740149  1
  Se  Se8  1  0.41740149  0.86086650  0.86086650  1
  Se  Se9  1  0.86086650  0.86086650  0.86086650  1
  Se  Se10  1  0.38307450  0.85077651  0.38307450  1
  Se  Se11  1  0.38307450  0.38307450  0.85077651  1
  Se  Se12  1  0.86086650  0.41740149  0.86086650  1
  Se  Se13  1  0.85077651  0.38307450  0.38307450  1
