# generated using pymatgen
data_TlFeBr4
_symmetry_space_group_name_H-M   'P 1'
_cell_length_a   7.74002701
_cell_length_b   10.29616806
_cell_length_c   10.39793600
_cell_angle_alpha   90.00000000
_cell_angle_beta   90.00000000
_cell_angle_gamma   90.00000000
_symmetry_Int_Tables_number   1
_chemical_formula_structural   TlFeBr4
_chemical_formula_sum   'Tl4 Fe4 Br16'
_cell_volume   828.63875083
_cell_formula_units_Z   4
loop_
 _symmetry_equiv_pos_site_id
 _symmetry_equiv_pos_as_xyz
  1  'x, y, z'
loop_
 _atom_site_type_symbol
 _atom_site_label
 _atom_site_symmetry_multiplicity
 _atom_site_fract_x
 _atom_site_fract_y
 _atom_site_fract_z
 _atom_site_occupancy
  Tl  Tl0  1  0.83467625  0.25000000  0.25000000  1
  Tl  Tl1  1  0.66532375  0.25000000  0.75000000  1
  Tl  Tl2  1  0.16532375  0.75000000  0.75000000  1
  Tl  Tl3  1  0.33467625  0.75000000  0.25000000  1
  Fe  Fe4  1  0.75000000  0.81855333  0.00000000  1
  Fe  Fe5  1  0.25000000  0.31855333  0.50000000  1
  Fe  Fe6  1  0.25000000  0.18144667  0.00000000  1
  Fe  Fe7  1  0.75000000  0.68144667  0.50000000  1
  Br  Br8  1  0.49229259  0.18721652  0.45787186  1
  Br  Br9  1  0.00770741  0.31278348  0.95787186  1
  Br  Br10  1  0.00770741  0.18721652  0.54212814  1
  Br  Br11  1  0.49229259  0.31278348  0.04212814  1
  Br  Br12  1  0.67548099  0.94558185  0.17878153  1
  Br  Br13  1  0.67548099  0.55441815  0.32121847  1
  Br  Br14  1  0.82451901  0.94558185  0.82121847  1
  Br  Br15  1  0.82451901  0.55441815  0.67878153  1
  Br  Br16  1  0.32451901  0.05441815  0.82121847  1
  Br  Br17  1  0.32451901  0.44558185  0.67878153  1
  Br  Br18  1  0.17548099  0.05441815  0.17878153  1
  Br  Br19  1  0.17548099  0.44558185  0.32121847  1
  Br  Br20  1  0.99229259  0.68721652  0.04212814  1
  Br  Br21  1  0.99229259  0.81278348  0.45787186  1
  Br  Br22  1  0.50770741  0.68721652  0.95787186  1
  Br  Br23  1  0.50770741  0.81278348  0.54212814  1
