# generated using pymatgen
data_VPCl9
_symmetry_space_group_name_H-M   'P 1'
_cell_length_a   10.18882263
_cell_length_b   10.18882263
_cell_length_c   6.21339481
_cell_angle_alpha   90.00000000
_cell_angle_beta   90.00000000
_cell_angle_gamma   108.26985324
_symmetry_Int_Tables_number   1
_chemical_formula_structural   VPCl9
_chemical_formula_sum   'V2 P2 Cl18'
_cell_volume   612.51022225
_cell_formula_units_Z   2
loop_
 _symmetry_equiv_pos_site_id
 _symmetry_equiv_pos_as_xyz
  1  'x, y, z'
loop_
 _atom_site_type_symbol
 _atom_site_label
 _atom_site_symmetry_multiplicity
 _atom_site_fract_x
 _atom_site_fract_y
 _atom_site_fract_z
 _atom_site_occupancy
  V  V0  1  0.75000000  0.25000000  0.61684625  1
  V  V1  1  0.25000000  0.75000000  0.38315375  1
  P  P2  1  0.75000000  0.75000000  0.00000000  1
  P  P3  1  0.25000000  0.25000000  0.00000000  1
  Cl  Cl4  1  0.22394623  0.08855411  0.81800050  1
  Cl  Cl5  1  0.41144589  0.27605377  0.18199950  1
  Cl  Cl6  1  0.91501654  0.41501654  0.76743872  1
  Cl  Cl7  1  0.08498346  0.58498346  0.23256128  1
  Cl  Cl8  1  0.41501654  0.91501654  0.23256128  1
  Cl  Cl9  1  0.58498346  0.08498346  0.76743872  1
  Cl  Cl10  1  0.75000000  0.25000000  0.26203136  1
  Cl  Cl11  1  0.25000000  0.75000000  0.73796864  1
  Cl  Cl12  1  0.10926805  0.89073195  0.38234302  1
  Cl  Cl13  1  0.60926805  0.39073195  0.61765698  1
  Cl  Cl14  1  0.39073195  0.60926805  0.38234302  1
  Cl  Cl15  1  0.89073195  0.10926805  0.61765698  1
  Cl  Cl16  1  0.27605377  0.41144589  0.81800050  1
  Cl  Cl17  1  0.08855411  0.22394623  0.18199950  1
  Cl  Cl18  1  0.77605377  0.91144589  0.18199950  1
  Cl  Cl19  1  0.58855411  0.72394623  0.81800050  1
  Cl  Cl20  1  0.91144589  0.77605377  0.81800050  1
  Cl  Cl21  1  0.72394623  0.58855411  0.18199950  1
