# generated using pymatgen
data_Sr5Bi3
_symmetry_space_group_name_H-M   'P 1'
_cell_length_a   9.73430164
_cell_length_b   9.73428413
_cell_length_c   7.57238436
_cell_angle_alpha   90.00000000
_cell_angle_beta   90.00000000
_cell_angle_gamma   120.00044926
_symmetry_Int_Tables_number   1
_chemical_formula_structural   Sr5Bi3
_chemical_formula_sum   'Sr10 Bi6'
_cell_volume   621.39840429
_cell_formula_units_Z   2
loop_
 _symmetry_equiv_pos_site_id
 _symmetry_equiv_pos_as_xyz
  1  'x, y, z'
loop_
 _atom_site_type_symbol
 _atom_site_label
 _atom_site_symmetry_multiplicity
 _atom_site_fract_x
 _atom_site_fract_y
 _atom_site_fract_z
 _atom_site_occupancy
  Sr  Sr0  1  0.33333300  0.66666700  0.00000000  1
  Sr  Sr1  1  0.66666700  0.33333300  0.50000000  1
  Sr  Sr2  1  0.66666700  0.33333300  0.00000000  1
  Sr  Sr3  1  0.33333300  0.66666700  0.50000000  1
  Sr  Sr4  1  0.74775881  -0.00000000  0.25000000  1
  Sr  Sr5  1  0.74775981  0.74775981  0.75000000  1
  Sr  Sr6  1  0.00000000  0.25224019  0.75000000  1
  Sr  Sr7  1  -0.00000000  0.74775881  0.25000000  1
  Sr  Sr8  1  0.25224119  0.25224119  0.25000000  1
  Sr  Sr9  1  0.25224019  0.00000000  0.75000000  1
  Bi  Bi10  1  0.38986107  0.00000000  0.25000000  1
  Bi  Bi11  1  0.38986307  0.38986207  0.75000000  1
  Bi  Bi12  1  -0.00000000  0.61013793  0.75000000  1
  Bi  Bi13  1  0.00000000  0.38986107  0.25000000  1
  Bi  Bi14  1  0.61013893  0.61013893  0.25000000  1
  Bi  Bi15  1  0.61013793  -0.00000000  0.75000000  1
