# generated using pymatgen
data_GdCo3B2
_symmetry_space_group_name_H-M   'P 1'
_cell_length_a   5.05944739
_cell_length_b   5.05946971
_cell_length_c   2.93256239
_cell_angle_alpha   90.00000000
_cell_angle_beta   90.00000000
_cell_angle_gamma   119.99984995
_symmetry_Int_Tables_number   1
_chemical_formula_structural   GdCo3B2
_chemical_formula_sum   'Gd1 Co3 B2'
_cell_volume   65.01096813
_cell_formula_units_Z   1
loop_
 _symmetry_equiv_pos_site_id
 _symmetry_equiv_pos_as_xyz
  1  'x, y, z'
loop_
 _atom_site_type_symbol
 _atom_site_label
 _atom_site_symmetry_multiplicity
 _atom_site_fract_x
 _atom_site_fract_y
 _atom_site_fract_z
 _atom_site_occupancy
  Gd  Gd0  1  0.00000000  -0.00000000  -0.00000000  1
  Co  Co1  1  0.50000000  -0.00000000  0.50000000  1
  Co  Co2  1  0.50000000  0.50000000  0.50000000  1
  Co  Co3  1  0.00000000  0.50000000  0.50000000  1
  B  B4  1  0.33332868  0.66666549  -0.00000000  1
  B  B5  1  0.66667132  0.33333451  0.00000000  1
