# generated using pymatgen
data_Gd(MnGe)2
_symmetry_space_group_name_H-M   'P 1'
_cell_length_a   6.25095153
_cell_length_b   6.25095153
_cell_length_c   6.25095153
_cell_angle_alpha   141.54322175
_cell_angle_beta   141.54322175
_cell_angle_gamma   55.51746001
_symmetry_Int_Tables_number   1
_chemical_formula_structural   Gd(MnGe)2
_chemical_formula_sum   'Gd1 Mn2 Ge2'
_cell_volume   93.77245843
_cell_formula_units_Z   1
loop_
 _symmetry_equiv_pos_site_id
 _symmetry_equiv_pos_as_xyz
  1  'x, y, z'
loop_
 _atom_site_type_symbol
 _atom_site_label
 _atom_site_symmetry_multiplicity
 _atom_site_fract_x
 _atom_site_fract_y
 _atom_site_fract_z
 _atom_site_occupancy
  Gd  Gd0  1  0.00000000  0.00000000  -0.00000000  1
  Mn  Mn1  1  0.75000000  0.25000000  0.50000000  1
  Mn  Mn2  1  0.25000000  0.75000000  0.50000000  1
  Ge  Ge3  1  0.61200188  0.61200188  0.00000000  1
  Ge  Ge4  1  0.38799812  0.38799812  -0.00000000  1
