# generated using pymatgen
data_CeCrSe3
_symmetry_space_group_name_H-M   'P 1'
_cell_length_a   3.95426344
_cell_length_b   8.21435316
_cell_length_c   13.73207985
_cell_angle_alpha   90.00000000
_cell_angle_beta   90.00000000
_cell_angle_gamma   90.00000000
_symmetry_Int_Tables_number   1
_chemical_formula_structural   CeCrSe3
_chemical_formula_sum   'Ce4 Cr4 Se12'
_cell_volume   446.04152305
_cell_formula_units_Z   4
loop_
 _symmetry_equiv_pos_site_id
 _symmetry_equiv_pos_as_xyz
  1  'x, y, z'
loop_
 _atom_site_type_symbol
 _atom_site_label
 _atom_site_symmetry_multiplicity
 _atom_site_fract_x
 _atom_site_fract_y
 _atom_site_fract_z
 _atom_site_occupancy
  Ce  Ce0  1  0.25000000  0.09134036  0.17198792  1
  Ce  Ce1  1  0.75000000  0.90865964  0.82801208  1
  Ce  Ce2  1  0.25000000  0.59134036  0.32801208  1
  Ce  Ce3  1  0.75000000  0.40865964  0.67198792  1
  Cr  Cr4  1  0.25000000  0.33898991  0.94783816  1
  Cr  Cr5  1  0.75000000  0.66101009  0.05216184  1
  Cr  Cr6  1  0.25000000  0.83898991  0.55216184  1
  Cr  Cr7  1  0.75000000  0.16101009  0.44783816  1
  Se  Se8  1  0.75000000  0.01432569  0.60800783  1
  Se  Se9  1  0.25000000  0.98567431  0.39199217  1
  Se  Se10  1  0.75000000  0.51432569  0.89199217  1
  Se  Se11  1  0.25000000  0.48567431  0.10800783  1
  Se  Se12  1  0.75000000  0.30811968  0.28757524  1
  Se  Se13  1  0.25000000  0.69188032  0.71242476  1
  Se  Se14  1  0.75000000  0.80811968  0.21242476  1
  Se  Se15  1  0.25000000  0.19188032  0.78757524  1
  Se  Se16  1  0.75000000  0.15879993  0.00533950  1
  Se  Se17  1  0.25000000  0.84120007  0.99466050  1
  Se  Se18  1  0.75000000  0.65879993  0.49466050  1
  Se  Se19  1  0.25000000  0.34120007  0.50533950  1
