# generated using pymatgen
data_H4OF2
_symmetry_space_group_name_H-M   'P 1'
_cell_length_a   5.94526093
_cell_length_b   3.34556155
_cell_length_c   11.10280796
_cell_angle_alpha   82.55798198
_cell_angle_beta   90.00000000
_cell_angle_gamma   90.00000000
_symmetry_Int_Tables_number   1
_chemical_formula_structural   H4OF2
_chemical_formula_sum   'H16 O4 F8'
_cell_volume   218.97723767
_cell_formula_units_Z   4
loop_
 _symmetry_equiv_pos_site_id
 _symmetry_equiv_pos_as_xyz
  1  'x, y, z'
loop_
 _atom_site_type_symbol
 _atom_site_label
 _atom_site_symmetry_multiplicity
 _atom_site_fract_x
 _atom_site_fract_y
 _atom_site_fract_z
 _atom_site_occupancy
  H  H0  1  0.91058096  0.17705464  0.69405150  1
  H  H1  1  0.41058096  0.82294536  0.80594850  1
  H  H2  1  0.08941904  0.82294536  0.30594850  1
  H  H3  1  0.58941904  0.17705464  0.19405150  1
  H  H4  1  0.69781105  0.89508614  0.65436406  1
  H  H5  1  0.19781105  0.10491386  0.84563594  1
  H  H6  1  0.30218895  0.10491386  0.34563594  1
  H  H7  1  0.80218895  0.89508614  0.15436406  1
  H  H8  1  0.80995980  0.24364467  0.55202213  1
  H  H9  1  0.30995980  0.75635533  0.94797787  1
  H  H10  1  0.19004020  0.75635533  0.44797787  1
  H  H11  1  0.69004020  0.24364467  0.05202213  1
  H  H12  1  0.63665571  0.44800729  0.38207391  1
  H  H13  1  0.13665571  0.55199271  0.11792609  1
  H  H14  1  0.36334429  0.55199271  0.61792609  1
  H  H15  1  0.86334429  0.44800729  0.88207391  1
  O  O16  1  0.84163358  0.04412158  0.62538777  1
  O  O17  1  0.34163358  0.95587842  0.87461223  1
  O  O18  1  0.15836642  0.95587842  0.37461223  1
  O  O19  1  0.65836642  0.04412158  0.12538777  1
  F  F20  1  0.00199563  0.33083384  0.80097920  1
  F  F21  1  0.50199563  0.66916616  0.69902080  1
  F  F22  1  -0.00199563  0.66916616  0.19902080  1
  F  F23  1  0.49800437  0.33083384  0.30097920  1
  F  F24  1  0.76051193  0.55168362  0.94441372  1
  F  F25  1  0.26051193  0.44831638  0.55558628  1
  F  F26  1  0.23948807  0.44831638  0.05558628  1
  F  F27  1  0.73948807  0.55168362  0.44441372  1
