# generated using pymatgen
data_K2CuF4
_symmetry_space_group_name_H-M   'P 1'
_cell_length_a   13.34229569
_cell_length_b   13.34229472
_cell_length_c   13.34226488
_cell_angle_alpha   154.82889494
_cell_angle_beta   154.82893578
_cell_angle_gamma   35.89599331
_symmetry_Int_Tables_number   1
_chemical_formula_structural   K2CuF4
_chemical_formula_sum   'K8 Cu4 F16'
_cell_volume   429.12839900
_cell_formula_units_Z   4
loop_
 _symmetry_equiv_pos_site_id
 _symmetry_equiv_pos_as_xyz
  1  'x, y, z'
loop_
 _atom_site_type_symbol
 _atom_site_label
 _atom_site_symmetry_multiplicity
 _atom_site_fract_x
 _atom_site_fract_y
 _atom_site_fract_z
 _atom_site_occupancy
  K  K0  1  0.42903594  0.42903572  0.00000248  1
  K  K1  1  0.57096557  0.57096484  0.99999832  1
  K  K2  1  0.07096396  0.07096460  0.99999743  1
  K  K3  1  0.92903352  0.92903349  0.00000010  1
  K  K4  1  0.32096316  0.82096212  0.49999692  1
  K  K5  1  0.17903473  0.67903460  0.50000373  1
  K  K6  1  0.67903750  0.17903736  0.50000298  1
  K  K7  1  0.82096490  0.32096565  0.49999612  1
  Cu  Cu8  1  0.25000047  0.24999973  0.00000008  1
  Cu  Cu9  1  0.74999977  0.74999944  -0.00000087  1
  Cu  Cu10  1  0.50000016  -0.00000072  0.49999989  1
  Cu  Cu11  1  -0.00000061  0.49999967  0.49999907  1
  F  F12  1  0.51820193  0.98179887  0.00000073  1
  F  F13  1  0.01820290  0.01820231  0.53640494  1
  F  F14  1  0.48179786  0.48179867  0.46359666  1
  F  F15  1  0.98179754  0.51820195  -0.00000055  1
  F  F16  1  0.76821221  0.73178853  0.50000072  1
  F  F17  1  0.26819883  0.76819822  0.03639745  1
  F  F18  1  0.73180204  0.23180273  0.96360418  1
  F  F19  1  0.23178681  0.26821257  0.49999938  1
  F  F20  1  0.32670029  0.32670060  0.00000533  1
  F  F21  1  0.67330123  0.67330073  0.99999480  1
  F  F22  1  0.17329896  0.17329928  0.99999372  1
  F  F23  1  0.82669949  0.82669904  0.00000576  1
  F  F24  1  0.92330297  0.42330255  0.49999431  1
  F  F25  1  0.57669972  0.07670045  0.50000515  1
  F  F26  1  0.07669767  0.57669731  0.50000616  1
  F  F27  1  0.42329947  0.92329965  0.49999400  1
