# generated using pymatgen
data_YSi3Ni5
_symmetry_space_group_name_H-M   'P 1'
_cell_length_a   3.76309568
_cell_length_b   6.58164313
_cell_length_c   18.57970767
_cell_angle_alpha   90.00000000
_cell_angle_beta   90.00000000
_cell_angle_gamma   90.00000000
_symmetry_Int_Tables_number   1
_chemical_formula_structural   YSi3Ni5
_chemical_formula_sum   'Y4 Si12 Ni20'
_cell_volume   460.17017534
_cell_formula_units_Z   4
loop_
 _symmetry_equiv_pos_site_id
 _symmetry_equiv_pos_as_xyz
  1  'x, y, z'
loop_
 _atom_site_type_symbol
 _atom_site_label
 _atom_site_symmetry_multiplicity
 _atom_site_fract_x
 _atom_site_fract_y
 _atom_site_fract_z
 _atom_site_occupancy
  Y  Y0  1  0.25000000  0.62283596  0.64387455  1
  Y  Y1  1  0.75000000  0.37716404  0.35612545  1
  Y  Y2  1  0.75000000  0.12283596  0.85612545  1
  Y  Y3  1  0.25000000  0.87716404  0.14387455  1
  Si  Si4  1  0.25000000  0.84321202  0.92610817  1
  Si  Si5  1  0.75000000  0.15678798  0.07389183  1
  Si  Si6  1  0.75000000  0.34321202  0.57389183  1
  Si  Si7  1  0.25000000  0.65678798  0.42610817  1
  Si  Si8  1  0.75000000  0.62191953  0.76304706  1
  Si  Si9  1  0.25000000  0.37808047  0.23695294  1
  Si  Si10  1  0.25000000  0.42052590  0.91419554  1
  Si  Si11  1  0.75000000  0.57947410  0.08580446  1
  Si  Si12  1  0.75000000  0.92052590  0.58580446  1
  Si  Si13  1  0.25000000  0.07947410  0.41419554  1
  Si  Si14  1  0.25000000  0.12191953  0.73695294  1
  Si  Si15  1  0.75000000  0.87808047  0.26304706  1
  Ni  Ni16  1  0.25000000  0.13394828  0.99450812  1
  Ni  Ni17  1  0.75000000  0.38484309  0.98476269  1
  Ni  Ni18  1  0.75000000  0.11515691  0.48476269  1
  Ni  Ni19  1  0.25000000  0.61515691  0.01523731  1
  Ni  Ni20  1  0.25000000  0.35642802  0.11494236  1
  Ni  Ni21  1  0.75000000  0.64357198  0.88505764  1
  Ni  Ni22  1  0.75000000  0.85642802  0.38505764  1
  Ni  Ni23  1  0.25000000  0.14357198  0.61494236  1
  Ni  Ni24  1  0.25000000  0.06917808  0.29357252  1
  Ni  Ni25  1  0.75000000  0.93082192  0.70642748  1
  Ni  Ni26  1  0.75000000  0.56917808  0.20642748  1
  Ni  Ni27  1  0.25000000  0.43082192  0.79357252  1
  Ni  Ni28  1  0.75000000  0.63394828  0.50549188  1
  Ni  Ni29  1  0.25000000  0.36605172  0.49450812  1
  Ni  Ni30  1  0.25000000  0.81455338  0.80057686  1
  Ni  Ni31  1  0.75000000  0.18544662  0.19942314  1
  Ni  Ni32  1  0.75000000  0.31455338  0.69942314  1
  Ni  Ni33  1  0.25000000  0.68544662  0.30057686  1
  Ni  Ni34  1  0.25000000  0.88484309  0.51523731  1
  Ni  Ni35  1  0.75000000  0.86605172  0.00549188  1
