# generated using pymatgen
data_YAgPb
_symmetry_space_group_name_H-M   'P 1'
_cell_length_a   7.52200757
_cell_length_b   7.52200757
_cell_length_c   4.52338629
_cell_angle_alpha   90.00000000
_cell_angle_beta   90.00000000
_cell_angle_gamma   120.00000762
_symmetry_Int_Tables_number   1
_chemical_formula_structural   YAgPb
_chemical_formula_sum   'Y3 Ag3 Pb3'
_cell_volume   221.64697455
_cell_formula_units_Z   3
loop_
 _symmetry_equiv_pos_site_id
 _symmetry_equiv_pos_as_xyz
  1  'x, y, z'
loop_
 _atom_site_type_symbol
 _atom_site_label
 _atom_site_symmetry_multiplicity
 _atom_site_fract_x
 _atom_site_fract_y
 _atom_site_fract_z
 _atom_site_occupancy
  Y  Y0  1  0.57469587  0.00000000  0.50000000  1
  Y  Y1  1  0.42530413  0.42530413  0.50000000  1
  Y  Y2  1  0.00000000  0.57469587  0.50000000  1
  Ag  Ag3  1  0.24621856  0.00000000  -0.00000000  1
  Ag  Ag4  1  0.75378144  0.75378144  0.00000000  1
  Ag  Ag5  1  0.00000000  0.24621856  -0.00000000  1
  Pb  Pb6  1  -0.00000000  -0.00000000  0.50000000  1
  Pb  Pb7  1  0.33333300  0.66666700  0.00000000  1
  Pb  Pb8  1  0.66666700  0.33333300  0.00000000  1
