# generated using pymatgen
data_U4Si6Tc7
_symmetry_space_group_name_H-M   'P 1'
_cell_length_a   7.09998153
_cell_length_b   7.10002533
_cell_length_c   7.10002874
_cell_angle_alpha   109.47162040
_cell_angle_beta   109.47115869
_cell_angle_gamma   109.47114752
_symmetry_Int_Tables_number   1
_chemical_formula_structural   U4Si6Tc7
_chemical_formula_sum   'U4 Si6 Tc7'
_cell_volume   275.52049754
_cell_formula_units_Z   1
loop_
 _symmetry_equiv_pos_site_id
 _symmetry_equiv_pos_as_xyz
  1  'x, y, z'
loop_
 _atom_site_type_symbol
 _atom_site_label
 _atom_site_symmetry_multiplicity
 _atom_site_fract_x
 _atom_site_fract_y
 _atom_site_fract_z
 _atom_site_occupancy
  U  U0  1  -0.00000000  -0.00000000  0.50000000  1
  U  U1  1  -0.00000000  0.50000000  -0.00000000  1
  U  U2  1  0.50000000  -0.00000000  -0.00000000  1
  U  U3  1  0.50000000  0.50000000  0.50000000  1
  Si  Si4  1  0.00000000  0.68766089  0.68765989  1
  Si  Si5  1  0.31236661  0.31233994  0.00002566  1
  Si  Si6  1  0.68763339  0.68766006  -0.00002566  1
  Si  Si7  1  0.68763339  -0.00002566  0.68765906  1
  Si  Si8  1  0.31236661  0.00002566  0.31234094  1
  Si  Si9  1  -0.00000000  0.31233911  0.31234011  1
  Tc  Tc10  1  0.74990835  0.49990964  0.25000071  1
  Tc  Tc11  1  0.74990835  0.24999871  0.49990764  1
  Tc  Tc12  1  0.25009165  0.75000129  0.50009236  1
  Tc  Tc13  1  0.49999800  0.24999900  0.74999900  1
  Tc  Tc14  1  -0.00000000  -0.00000000  -0.00000000  1
  Tc  Tc15  1  0.25009165  0.50009036  0.74999929  1
  Tc  Tc16  1  0.50000200  0.75000100  0.25000100  1
