# generated using pymatgen
data_Gd2CI
_symmetry_space_group_name_H-M   'P 1'
_cell_length_a   3.82335342
_cell_length_b   3.82335424
_cell_length_c   14.89265894
_cell_angle_alpha   90.00000000
_cell_angle_beta   90.00000000
_cell_angle_gamma   120.00001117
_symmetry_Int_Tables_number   1
_chemical_formula_structural   Gd2CI
_chemical_formula_sum   'Gd4 C2 I2'
_cell_volume   188.53492381
_cell_formula_units_Z   2
loop_
 _symmetry_equiv_pos_site_id
 _symmetry_equiv_pos_as_xyz
  1  'x, y, z'
loop_
 _atom_site_type_symbol
 _atom_site_label
 _atom_site_symmetry_multiplicity
 _atom_site_fract_x
 _atom_site_fract_y
 _atom_site_fract_z
 _atom_site_occupancy
  Gd  Gd0  1  0.33333300  0.66666700  0.41508573  1
  Gd  Gd1  1  0.66666700  0.33333300  0.91508573  1
  Gd  Gd2  1  0.66666700  0.33333300  0.58491427  1
  Gd  Gd3  1  0.33333300  0.66666700  0.08491427  1
  C  C4  1  0.00000000  -0.00000000  0.50000000  1
  C  C5  1  0.00000000  -0.00000000  -0.00000000  1
  I  I6  1  0.66666700  0.33333300  0.25000000  1
  I  I7  1  0.33333300  0.66666700  0.75000000  1
