# generated using pymatgen
data_NaTiF4
_symmetry_space_group_name_H-M   'P 1'
_cell_length_a   5.02000133
_cell_length_b   5.74253141
_cell_length_c   10.85698808
_cell_angle_alpha   90.00000000
_cell_angle_beta   90.00000000
_cell_angle_gamma   90.00000000
_symmetry_Int_Tables_number   1
_chemical_formula_structural   NaTiF4
_chemical_formula_sum   'Na4 Ti4 F16'
_cell_volume   312.97999016
_cell_formula_units_Z   4
loop_
 _symmetry_equiv_pos_site_id
 _symmetry_equiv_pos_as_xyz
  1  'x, y, z'
loop_
 _atom_site_type_symbol
 _atom_site_label
 _atom_site_symmetry_multiplicity
 _atom_site_fract_x
 _atom_site_fract_y
 _atom_site_fract_z
 _atom_site_occupancy
  Na  Na0  1  0.50000000  -0.00000000  0.50000000  1
  Na  Na1  1  -0.00000000  0.50000000  0.50000000  1
  Na  Na2  1  0.50000000  -0.00000000  -0.00000000  1
  Na  Na3  1  -0.00000000  0.50000000  -0.00000000  1
  Ti  Ti4  1  0.50000000  0.34236820  0.25000000  1
  Ti  Ti5  1  -0.00000000  0.15763180  0.75000000  1
  Ti  Ti6  1  0.50000000  0.65763180  0.75000000  1
  Ti  Ti7  1  -0.00000000  0.84236820  0.25000000  1
  F  F8  1  0.32378363  0.31593893  0.09657333  1
  F  F9  1  0.82378363  0.18406107  0.90342667  1
  F  F10  1  0.67621637  0.31593893  0.40342667  1
  F  F11  1  0.17621637  0.18406107  0.59657333  1
  F  F12  1  0.67621637  0.68406107  0.90342667  1
  F  F13  1  0.17621637  0.81593893  0.09657333  1
  F  F14  1  0.32378363  0.68406107  0.59657333  1
  F  F15  1  0.82378363  0.81593893  0.40342667  1
  F  F16  1  0.74447702  0.08397790  0.18481633  1
  F  F17  1  0.24447702  0.41602210  0.81518367  1
  F  F18  1  0.25552298  0.08397790  0.31518367  1
  F  F19  1  0.75552298  0.41602210  0.68481633  1
  F  F20  1  0.25552298  0.91602210  0.81518367  1
  F  F21  1  0.75552298  0.58397790  0.18481633  1
  F  F22  1  0.74447702  0.91602210  0.68481633  1
  F  F23  1  0.24447702  0.58397790  0.31518367  1
