# generated using pymatgen
data_La(MnGe)2
_symmetry_space_group_name_H-M   'P 1'
_cell_length_a   6.34457061
_cell_length_b   6.34457061
_cell_length_c   6.34457061
_cell_angle_alpha   140.95944527
_cell_angle_beta   140.95944527
_cell_angle_gamma   56.39937392
_symmetry_Int_Tables_number   1
_chemical_formula_structural   La(MnGe)2
_chemical_formula_sum   'La1 Mn2 Ge2'
_cell_volume   100.51978121
_cell_formula_units_Z   1
loop_
 _symmetry_equiv_pos_site_id
 _symmetry_equiv_pos_as_xyz
  1  'x, y, z'
loop_
 _atom_site_type_symbol
 _atom_site_label
 _atom_site_symmetry_multiplicity
 _atom_site_fract_x
 _atom_site_fract_y
 _atom_site_fract_z
 _atom_site_occupancy
  La  La0  1  0.00000000  -0.00000000  -0.00000000  1
  Mn  Mn1  1  0.75000000  0.25000000  0.50000000  1
  Mn  Mn2  1  0.25000000  0.75000000  0.50000000  1
  Ge  Ge3  1  0.61703062  0.61703062  0.00000000  1
  Ge  Ge4  1  0.38296938  0.38296938  -0.00000000  1
