# generated using pymatgen
data_PuBr3
_symmetry_space_group_name_H-M   'P 1'
_cell_length_a   4.09795068
_cell_length_b   6.90720674
_cell_length_c   9.19999461
_cell_angle_alpha   90.43743018
_cell_angle_beta   90.00000000
_cell_angle_gamma   107.25609208
_symmetry_Int_Tables_number   1
_chemical_formula_structural   PuBr3
_chemical_formula_sum   'Pu2 Br6'
_cell_volume   248.68006778
_cell_formula_units_Z   2
loop_
 _symmetry_equiv_pos_site_id
 _symmetry_equiv_pos_as_xyz
  1  'x, y, z'
loop_
 _atom_site_type_symbol
 _atom_site_label
 _atom_site_symmetry_multiplicity
 _atom_site_fract_x
 _atom_site_fract_y
 _atom_site_fract_z
 _atom_site_occupancy
  Pu  Pu0  1  0.74009448  0.48018996  0.24813307  1
  Pu  Pu1  1  0.25990552  0.51981004  0.75186693  1
  Br  Br2  1  0.35085112  0.70170324  0.43273824  1
  Br  Br3  1  0.64914888  0.29829676  0.56726176  1
  Br  Br4  1  0.91491569  0.82982938  0.74929948  1
  Br  Br5  1  0.08508431  0.17017062  0.25070052  1
  Br  Br6  1  0.35017903  0.70035506  0.06736727  1
  Br  Br7  1  0.64982097  0.29964494  0.93263273  1
