# generated using pymatgen
data_CeInCu
_symmetry_space_group_name_H-M   'P 1'
_cell_length_a   7.51094062
_cell_length_b   7.51103353
_cell_length_c   4.18671390
_cell_angle_alpha   90.00000000
_cell_angle_beta   90.00000000
_cell_angle_gamma   119.99964492
_symmetry_Int_Tables_number   1
_chemical_formula_structural   CeInCu
_chemical_formula_sum   'Ce3 In3 Cu3'
_cell_volume   204.55000739
_cell_formula_units_Z   3
loop_
 _symmetry_equiv_pos_site_id
 _symmetry_equiv_pos_as_xyz
  1  'x, y, z'
loop_
 _atom_site_type_symbol
 _atom_site_label
 _atom_site_symmetry_multiplicity
 _atom_site_fract_x
 _atom_site_fract_y
 _atom_site_fract_z
 _atom_site_occupancy
  Ce  Ce0  1  0.00003056  0.58091201  0.50000000  1
  Ce  Ce1  1  0.41912218  0.41911076  0.50000000  1
  Ce  Ce2  1  0.58089296  0.00000098  0.50000000  1
  In  In3  1  0.75715303  0.75714630  -0.00000000  1
  In  In4  1  0.00000806  0.24286293  0.00000000  1
  In  In5  1  0.24285175  0.00001831  -0.00000000  1
  Cu  Cu6  1  0.33330721  0.66662679  0.00000000  1
  Cu  Cu7  1  0.99995011  0.99994381  0.50000000  1
  Cu  Cu8  1  0.66668514  0.33337711  0.00000000  1
