# generated using pymatgen
data_Er(SiNi5)2
_symmetry_space_group_name_H-M   'P 1'
_cell_length_a   8.06681565
_cell_length_b   8.06681565
_cell_length_c   4.62600222
_cell_angle_alpha   90.00000000
_cell_angle_beta   90.00000000
_cell_angle_gamma   90.00000000
_symmetry_Int_Tables_number   1
_chemical_formula_structural   Er(SiNi5)2
_chemical_formula_sum   'Er2 Si4 Ni20'
_cell_volume   301.03022361
_cell_formula_units_Z   2
loop_
 _symmetry_equiv_pos_site_id
 _symmetry_equiv_pos_as_xyz
  1  'x, y, z'
loop_
 _atom_site_type_symbol
 _atom_site_label
 _atom_site_symmetry_multiplicity
 _atom_site_fract_x
 _atom_site_fract_y
 _atom_site_fract_z
 _atom_site_occupancy
  Er  Er0  1  0.50000000  -0.00000000  0.77911418  1
  Er  Er1  1  0.00000000  0.50000000  0.22088582  1
  Si  Si2  1  0.75000000  0.75000000  0.50000000  1
  Si  Si3  1  0.25000000  0.25000000  0.50000000  1
  Si  Si4  1  0.75000000  0.25000000  0.50000000  1
  Si  Si5  1  0.25000000  0.75000000  0.50000000  1
  Ni  Ni6  1  0.25000000  0.25000000  0.00000000  1
  Ni  Ni7  1  0.25000000  0.75000000  0.00000000  1
  Ni  Ni8  1  0.50000000  0.22290144  0.27063322  1
  Ni  Ni9  1  0.75000000  0.75000000  0.00000000  1
  Ni  Ni10  1  0.75000000  0.25000000  0.00000000  1
  Ni  Ni11  1  0.50000000  0.77709856  0.27063322  1
  Ni  Ni12  1  0.35251887  0.50000000  0.23918166  1
  Ni  Ni13  1  0.00000000  0.14748113  0.23918166  1
  Ni  Ni14  1  0.00000000  0.85251887  0.23918166  1
  Ni  Ni15  1  0.64748113  0.50000000  0.23918166  1
  Ni  Ni16  1  0.14748113  -0.00000000  0.76081834  1
  Ni  Ni17  1  0.85251887  -0.00000000  0.76081834  1
  Ni  Ni18  1  0.50000000  0.35251887  0.76081834  1
  Ni  Ni19  1  0.50000000  0.64748113  0.76081834  1
  Ni  Ni20  1  0.77709856  0.50000000  0.72936678  1
  Ni  Ni21  1  0.00000000  0.72290144  0.72936678  1
  Ni  Ni22  1  0.00000000  0.27709856  0.72936678  1
  Ni  Ni23  1  0.22290144  0.50000000  0.72936678  1
  Ni  Ni24  1  0.72290144  -0.00000000  0.27063322  1
  Ni  Ni25  1  0.27709856  -0.00000000  0.27063322  1
