# generated using pymatgen
data_H8S(NO2)2
_symmetry_space_group_name_H-M   'P 1'
_cell_length_a   5.93071333
_cell_length_b   7.94996618
_cell_length_c   10.49063509
_cell_angle_alpha   90.00000000
_cell_angle_beta   90.00000000
_cell_angle_gamma   90.00000000
_symmetry_Int_Tables_number   1
_chemical_formula_structural   H8S(NO2)2
_chemical_formula_sum   'H32 S4 N8 O16'
_cell_volume   494.62264370
_cell_formula_units_Z   4
loop_
 _symmetry_equiv_pos_site_id
 _symmetry_equiv_pos_as_xyz
  1  'x, y, z'
loop_
 _atom_site_type_symbol
 _atom_site_label
 _atom_site_symmetry_multiplicity
 _atom_site_fract_x
 _atom_site_fract_y
 _atom_site_fract_z
 _atom_site_occupancy
  H  H0  1  0.42164425  0.45852817  0.83758137  1
  H  H1  1  0.92164425  0.54147183  0.16241863  1
  H  H2  1  0.92164425  0.04147183  0.33758137  1
  H  H3  1  0.42164425  0.95852817  0.66241863  1
  H  H4  1  0.14832699  0.39755061  0.83759331  1
  H  H5  1  0.64832699  0.60244939  0.16240669  1
  H  H6  1  0.64832699  0.10244939  0.33759331  1
  H  H7  1  0.14832699  0.89755061  0.66240669  1
  H  H8  1  0.26284721  0.48214140  0.70547397  1
  H  H9  1  0.76284721  0.51785860  0.29452603  1
  H  H10  1  0.76284721  0.01785860  0.20547397  1
  H  H11  1  0.26284721  0.98214140  0.79452603  1
  H  H12  1  0.22121034  0.60366017  0.83570448  1
  H  H13  1  0.72121034  0.39633983  0.16429552  1
  H  H14  1  0.19424080  0.26343875  0.18116014  1
  H  H15  1  0.72121034  0.89633983  0.33570448  1
  H  H16  1  0.41372435  0.18830815  0.09537592  1
  H  H17  1  0.91372435  0.81169185  0.90462408  1
  H  H18  1  0.91372435  0.31169185  0.59537592  1
  H  H19  1  0.41372435  0.68830815  0.40462408  1
  H  H20  1  0.15476985  0.20513582  0.02793859  1
  H  H21  1  0.65476985  0.79486418  0.97206141  1
  H  H22  1  0.65476985  0.29486418  0.52793859  1
  H  H23  1  0.15476985  0.70513582  0.47206141  1
  H  H24  1  0.19992074  0.05862410  0.13915919  1
  H  H25  1  0.69992074  0.94137590  0.86084081  1
  H  H26  1  0.69992074  0.44137590  0.63915919  1
  H  H27  1  0.19992074  0.55862410  0.36084081  1
  H  H28  1  0.19424080  0.76343875  0.31883986  1
  H  H29  1  0.69424080  0.23656125  0.68116014  1
  H  H30  1  0.69424080  0.73656125  0.81883986  1
  H  H31  1  0.22121034  0.10366017  0.66429552  1
  S  S32  1  0.24723857  0.74208322  0.07167665  1
  S  S33  1  0.74723857  0.25791678  0.92832335  1
  S  S34  1  0.74723857  0.75791678  0.57167665  1
  S  S35  1  0.24723857  0.24208322  0.42832335  1
  N  N36  1  0.26188867  0.48530375  0.80274905  1
  N  N37  1  0.76188867  0.51469625  0.19725095  1
  N  N38  1  0.76188867  0.01469625  0.30274905  1
  N  N39  1  0.26188867  0.98530375  0.69725095  1
  N  N40  1  0.24209586  0.17964913  0.11140531  1
  N  N41  1  0.74209586  0.82035087  0.88859469  1
  N  N42  1  0.74209586  0.32035087  0.61140531  1
  N  N43  1  0.24209586  0.67964913  0.38859469  1
  O  O44  1  0.48503457  0.77553101  0.10841776  1
  O  O45  1  0.98503457  0.22446899  0.89158224  1
  O  O46  1  0.98503457  0.72446899  0.60841776  1
  O  O47  1  0.48503457  0.27553101  0.39158224  1
  O  O48  1  0.09705085  0.84416491  0.15387037  1
  O  O49  1  0.59705085  0.15583509  0.84612963  1
  O  O50  1  0.59705085  0.65583509  0.65387037  1
  O  O51  1  0.09705085  0.34416491  0.34612963  1
  O  O52  1  0.21455911  0.79354020  0.93636564  1
  O  O53  1  0.71455911  0.20645980  0.06363436  1
  O  O54  1  0.71455911  0.70645980  0.43636564  1
  O  O55  1  0.21455911  0.29354020  0.56363436  1
  O  O56  1  0.19444782  0.56284841  0.08767453  1
  O  O57  1  0.69444782  0.43715159  0.91232547  1
  O  O58  1  0.69444782  0.93715159  0.58767453  1
  O  O59  1  0.19444782  0.06284841  0.41232547  1
