# generated using pymatgen
data_Na2H10SO5
_symmetry_space_group_name_H-M   'P 1'
_cell_length_a   6.97220245
_cell_length_b   6.97220245
_cell_length_c   8.55891327
_cell_angle_alpha   90.00000000
_cell_angle_beta   90.00000000
_cell_angle_gamma   125.61153586
_symmetry_Int_Tables_number   1
_chemical_formula_structural   Na2H10SO5
_chemical_formula_sum   'Na4 H20 S2 O10'
_cell_volume   338.25198755
_cell_formula_units_Z   2
loop_
 _symmetry_equiv_pos_site_id
 _symmetry_equiv_pos_as_xyz
  1  'x, y, z'
loop_
 _atom_site_type_symbol
 _atom_site_label
 _atom_site_symmetry_multiplicity
 _atom_site_fract_x
 _atom_site_fract_y
 _atom_site_fract_z
 _atom_site_occupancy
  Na  Na0  1  0.00000000  0.00000000  0.00000000  1
  Na  Na1  1  0.54646555  0.45353445  0.75000000  1
  Na  Na2  1  0.45353445  0.54646555  0.25000000  1
  Na  Na3  1  0.00000000  0.00000000  0.50000000  1
  H  H4  1  0.62943254  0.99898460  0.37942209  1
  H  H5  1  0.82117236  0.52254663  0.02260512  1
  H  H6  1  0.52254663  0.82117236  0.97739488  1
  H  H7  1  0.17882764  0.47745337  0.52260512  1
  H  H8  1  0.17882764  0.47745337  0.97739488  1
  H  H9  1  0.47745337  0.17882764  0.02260512  1
  H  H10  1  0.82117236  0.52254663  0.47739488  1
  H  H11  1  0.52254663  0.82117236  0.52260512  1
  H  H12  1  0.99898460  0.62943254  0.87942209  1
  H  H13  1  0.62943254  0.99898460  0.12057791  1
  H  H14  1  0.00101540  0.37056746  0.37942209  1
  H  H15  1  0.37056746  0.00101540  0.62057791  1
  H  H16  1  0.00101540  0.37056746  0.12057791  1
  H  H17  1  0.37056746  0.00101540  0.87942209  1
  H  H18  1  0.73675761  0.01463132  0.75000000  1
  H  H19  1  0.99898460  0.62943254  0.62057791  1
  H  H20  1  0.26324239  0.98536868  0.25000000  1
  H  H21  1  0.98536868  0.26324239  0.75000000  1
  H  H22  1  0.01463132  0.73675761  0.25000000  1
  H  H23  1  0.47745337  0.17882764  0.47739488  1
  S  S24  1  0.68778877  0.31221123  0.25000000  1
  S  S25  1  0.31221123  0.68778877  0.75000000  1
  O  O26  1  0.86320978  0.61711362  0.92674608  1
  O  O27  1  0.61711362  0.86320978  0.07325392  1
  O  O28  1  0.13679022  0.38288638  0.42674608  1
  O  O29  1  0.38288638  0.13679022  0.57325392  1
  O  O30  1  0.13679022  0.38288638  0.07325392  1
  O  O31  1  0.38288638  0.13679022  0.92674608  1
  O  O32  1  0.86320978  0.61711362  0.57325392  1
  O  O33  1  0.61711362  0.86320978  0.42674608  1
  O  O34  1  0.90738624  0.09261376  0.75000000  1
  O  O35  1  0.09261376  0.90738624  0.25000000  1
