# generated using pymatgen
data_BePH4NO4
_symmetry_space_group_name_H-M   'P 1'
_cell_length_a   4.92650173
_cell_length_b   8.58708058
_cell_length_c   8.70990538
_cell_angle_alpha   90.00000000
_cell_angle_beta   90.00000000
_cell_angle_gamma   90.00000000
_symmetry_Int_Tables_number   1
_chemical_formula_structural   BePH4NO4
_chemical_formula_sum   'Be4 P4 H16 N4 O16'
_cell_volume   368.46616564
_cell_formula_units_Z   4
loop_
 _symmetry_equiv_pos_site_id
 _symmetry_equiv_pos_as_xyz
  1  'x, y, z'
loop_
 _atom_site_type_symbol
 _atom_site_label
 _atom_site_symmetry_multiplicity
 _atom_site_fract_x
 _atom_site_fract_y
 _atom_site_fract_z
 _atom_site_occupancy
  Be  Be0  1  0.66274968  0.59386656  0.32646254  1
  Be  Be1  1  0.16274968  0.09386656  0.17353746  1
  Be  Be2  1  0.66274968  0.90613344  0.82646254  1
  Be  Be3  1  0.16274968  0.40613344  0.67353746  1
  P  P4  1  0.66222284  0.58485071  0.68472320  1
  P  P5  1  0.16222284  0.41514929  0.31527680  1
  P  P6  1  0.66222284  0.91514929  0.18472320  1
  P  P7  1  0.16222284  0.08485071  0.81527680  1
  H  H8  1  0.34506754  0.72183310  0.98774074  1
  H  H9  1  0.84506754  0.27816690  0.01225926  1
  H  H10  1  0.34506754  0.77816690  0.48774074  1
  H  H11  1  0.84506754  0.22183310  0.51225926  1
  H  H12  1  0.02939020  0.70938955  0.49259016  1
  H  H13  1  0.52939020  0.29061045  0.50740984  1
  H  H14  1  0.10225886  0.63482145  0.09796700  1
  H  H15  1  0.60225886  0.36517855  0.90203300  1
  H  H16  1  0.10225886  0.86517855  0.59796700  1
  H  H17  1  0.60225886  0.13482145  0.40203300  1
  H  H18  1  0.08902444  0.62557380  0.90022567  1
  H  H19  1  0.52939020  0.20938955  0.00740984  1
  H  H20  1  0.08902444  0.87442620  0.40022567  1
  H  H21  1  0.58902444  0.12557380  0.59977433  1
  H  H22  1  0.02939020  0.79061045  0.99259016  1
  H  H23  1  0.58902444  0.37442620  0.09977433  1
  N  N24  1  0.14470198  0.69134106  0.99546139  1
  N  N25  1  0.64470198  0.30865894  0.00453861  1
  N  N26  1  0.64470198  0.19134106  0.50453861  1
  N  N27  1  0.14470198  0.80865894  0.49546139  1
  O  O28  1  0.96516277  0.95450940  0.76719745  1
  O  O29  1  0.44941337  0.46309138  0.26408765  1
  O  O30  1  0.58254189  0.76418729  0.26325452  1
  O  O31  1  0.58254189  0.73581271  0.76325452  1
  O  O32  1  0.94941337  0.96309138  0.23591235  1
  O  O33  1  0.44941337  0.03690862  0.76408765  1
  O  O34  1  0.65576543  0.60762156  0.51144012  1
  O  O35  1  0.15576543  0.39237844  0.48855988  1
  O  O36  1  0.65576543  0.89237844  0.01144012  1
  O  O37  1  0.15576543  0.10762156  0.98855988  1
  O  O38  1  0.08254189  0.26418729  0.23674548  1
  O  O39  1  0.94941337  0.53690862  0.73591235  1
  O  O40  1  0.96516277  0.54549060  0.26719745  1
  O  O41  1  0.46516277  0.04549060  0.23280255  1
  O  O42  1  0.46516277  0.45450940  0.73280255  1
  O  O43  1  0.08254189  0.23581271  0.73674548  1
