# generated using pymatgen
data_UBrO2
_symmetry_space_group_name_H-M   'P 1'
_cell_length_a   4.03275007
_cell_length_b   4.11746856
_cell_length_c   10.54492463
_cell_angle_alpha   101.25843428
_cell_angle_beta   90.00000000
_cell_angle_gamma   90.00000000
_symmetry_Int_Tables_number   1
_chemical_formula_structural   UBrO2
_chemical_formula_sum   'U2 Br2 O4'
_cell_volume   171.72609596
_cell_formula_units_Z   2
loop_
 _symmetry_equiv_pos_site_id
 _symmetry_equiv_pos_as_xyz
  1  'x, y, z'
loop_
 _atom_site_type_symbol
 _atom_site_label
 _atom_site_symmetry_multiplicity
 _atom_site_fract_x
 _atom_site_fract_y
 _atom_site_fract_z
 _atom_site_occupancy
  U  U0  1  0.25000000  0.07482066  0.14964332  1
  U  U1  1  0.75000000  0.92517834  0.85035668  1
  Br  Br2  1  0.75000000  0.18018733  0.36037366  1
  Br  Br3  1  0.25000000  0.81981267  0.63962634  1
  O  O4  1  0.25000000  0.57378697  0.14757494  1
  O  O5  1  0.75000000  0.42621303  0.85242506  1
  O  O6  1  0.75000000  0.03458278  0.06916755  1
  O  O7  1  0.25000000  0.96541722  0.93083245  1
