# generated using pymatgen
data_InAgSe2
_symmetry_space_group_name_H-M   'P 1'
_cell_length_a   6.13571580
_cell_length_b   6.13571678
_cell_length_c   7.37402035
_cell_angle_alpha   114.58456832
_cell_angle_beta   114.58457693
_cell_angle_gamma   90.00000093
_symmetry_Int_Tables_number   1
_chemical_formula_structural   InAgSe2
_chemical_formula_sum   'In2 Ag2 Se4'
_cell_volume   224.47432911
_cell_formula_units_Z   2
loop_
 _symmetry_equiv_pos_site_id
 _symmetry_equiv_pos_as_xyz
  1  'x, y, z'
loop_
 _atom_site_type_symbol
 _atom_site_label
 _atom_site_symmetry_multiplicity
 _atom_site_fract_x
 _atom_site_fract_y
 _atom_site_fract_z
 _atom_site_occupancy
  In  In0  1  0.50000000  0.50000000  0.00000000  1
  In  In1  1  0.75000000  0.25000000  0.50000000  1
  Ag  Ag2  1  0.25000000  0.75000000  0.50000000  1
  Ag  Ag3  1  -0.00000000  0.00000000  0.00000000  1
  Se  Se4  1  0.86885222  0.87500000  0.25000000  1
  Se  Se5  1  0.62500000  0.13114778  0.75000000  1
  Se  Se6  1  0.38114778  0.37500000  0.25000000  1
  Se  Se7  1  0.12500000  0.61885222  0.75000000  1
