# generated using pymatgen
data_H4CN2O
_symmetry_space_group_name_H-M   'P 1'
_cell_length_a   5.55512848
_cell_length_b   5.55512848
_cell_length_c   4.64699136
_cell_angle_alpha   90.00000000
_cell_angle_beta   90.00000000
_cell_angle_gamma   90.00000000
_symmetry_Int_Tables_number   1
_chemical_formula_structural   H4CN2O
_chemical_formula_sum   'H8 C2 N4 O2'
_cell_volume   143.40360881
_cell_formula_units_Z   2
loop_
 _symmetry_equiv_pos_site_id
 _symmetry_equiv_pos_as_xyz
  1  'x, y, z'
loop_
 _atom_site_type_symbol
 _atom_site_label
 _atom_site_symmetry_multiplicity
 _atom_site_fract_x
 _atom_site_fract_y
 _atom_site_fract_z
 _atom_site_occupancy
  H  H0  1  0.85617270  0.64382730  0.95905776  1
  H  H1  1  0.35617270  0.85617270  0.04094224  1
  H  H2  1  0.64382730  0.14382730  0.04094224  1
  H  H3  1  0.14382730  0.35617270  0.95905776  1
  H  H4  1  0.25922647  0.24077353  0.28229207  1
  H  H5  1  0.24077353  0.74077353  0.71770793  1
  H  H6  1  0.75922647  0.25922647  0.71770793  1
  H  H7  1  0.74077353  0.75922647  0.28229207  1
  C  C8  1  0.50000000  0.00000000  0.67293720  1
  C  C9  1  0.00000000  0.50000000  0.32706280  1
  N  N10  1  0.35380848  0.85380848  0.82296174  1
  N  N11  1  0.14619152  0.35380848  0.17703826  1
  N  N12  1  0.64619152  0.14619152  0.82296174  1
  N  N13  1  0.85380848  0.64619152  0.17703826  1
  O  O14  1  0.00000000  0.50000000  0.60047446  1
  O  O15  1  0.50000000  0.00000000  0.39952554  1
