# generated using pymatgen
data_KY3F10
_symmetry_space_group_name_H-M   'P 1'
_cell_length_a   8.15330750
_cell_length_b   8.15330931
_cell_length_c   8.15330040
_cell_angle_alpha   59.99992598
_cell_angle_beta   59.99992716
_cell_angle_gamma   59.99984838
_symmetry_Int_Tables_number   1
_chemical_formula_structural   KY3F10
_chemical_formula_sum   'K2 Y6 F20'
_cell_volume   383.25268562
_cell_formula_units_Z   2
loop_
 _symmetry_equiv_pos_site_id
 _symmetry_equiv_pos_as_xyz
  1  'x, y, z'
loop_
 _atom_site_type_symbol
 _atom_site_label
 _atom_site_symmetry_multiplicity
 _atom_site_fract_x
 _atom_site_fract_y
 _atom_site_fract_z
 _atom_site_occupancy
  K  K0  1  0.74999991  0.74999992  0.75000004  1
  K  K1  1  0.25000010  0.24999993  0.25000001  1
  Y  Y2  1  0.75991817  0.75991942  0.24008196  1
  Y  Y3  1  0.24008240  0.75991708  0.24008183  1
  Y  Y4  1  0.75991805  0.24008187  0.24008191  1
  Y  Y5  1  0.24008043  0.24008188  0.75991865  1
  Y  Y6  1  0.75991838  0.24008174  0.75991766  1
  Y  Y7  1  0.24008268  0.75991798  0.75991790  1
  F  F8  1  0.88783523  0.88783519  0.33649354  1
  F  F9  1  0.88783539  0.33649365  0.88783539  1
  F  F10  1  0.33649366  0.88783515  0.88783545  1
  F  F11  1  0.88783516  0.88783520  0.88783552  1
  F  F12  1  0.11216458  0.11216483  0.66350652  1
  F  F13  1  0.11216470  0.66350627  0.11216460  1
  F  F14  1  0.66350646  0.11216465  0.11216460  1
  F  F15  1  0.11216462  0.11216510  0.11216443  1
  F  F16  1  0.50000047  0.50000021  0.83182306  1
  F  F17  1  0.16817761  0.50000030  0.83182238  1
  F  F18  1  0.49999992  0.16817775  0.83182251  1
  F  F19  1  0.16817750  0.83182227  0.50000003  1
  F  F20  1  0.50000027  0.83182261  0.50000071  1
  F  F21  1  0.49999980  0.83182234  0.16817760  1
  F  F22  1  0.83182180  0.16817824  0.49999992  1
  F  F23  1  0.83182289  0.50000003  0.16817719  1
  F  F24  1  0.83182318  0.50000035  0.50000050  1
  F  F25  1  0.49999996  0.49999958  0.16817701  1
  F  F26  1  0.49999970  0.16817662  0.49999962  1
  F  F27  1  0.16817698  0.49999985  0.49999948  1
