# generated using pymatgen
data_NaClO4
_symmetry_space_group_name_H-M   'P 1'
_cell_length_a   4.71875978
_cell_length_b   4.71876030
_cell_length_c   6.98561793
_cell_angle_alpha   90.00000000
_cell_angle_beta   90.00000000
_cell_angle_gamma   95.61421131
_symmetry_Int_Tables_number   1
_chemical_formula_structural   NaClO4
_chemical_formula_sum   'Na2 Cl2 O8'
_cell_volume   154.80050180
_cell_formula_units_Z   2
loop_
 _symmetry_equiv_pos_site_id
 _symmetry_equiv_pos_as_xyz
  1  'x, y, z'
loop_
 _atom_site_type_symbol
 _atom_site_label
 _atom_site_symmetry_multiplicity
 _atom_site_fract_x
 _atom_site_fract_y
 _atom_site_fract_z
 _atom_site_occupancy
  Na  Na0  1  0.65640662  0.65640662  0.25000000  1
  Na  Na1  1  0.34359338  0.34359338  0.75000000  1
  Cl  Cl2  1  0.15944971  0.15944971  0.25000000  1
  Cl  Cl3  1  0.84055029  0.84055029  0.75000000  1
  O  O4  1  0.14146958  0.80682710  0.75000000  1
  O  O5  1  0.85852942  0.19317290  0.25000000  1
  O  O6  1  0.80682710  0.14146958  0.75000000  1
  O  O7  1  0.19317290  0.85852942  0.25000000  1
  O  O8  1  0.29367690  0.29367690  0.08342575  1
  O  O9  1  0.70632310  0.70632310  0.58342575  1
  O  O10  1  0.29367690  0.29367690  0.41657425  1
  O  O11  1  0.70632310  0.70632310  0.91657425  1
