# generated using pymatgen
data_PrSiPd
_symmetry_space_group_name_H-M   'P 1'
_cell_length_a   5.88935525
_cell_length_b   7.89050504
_cell_length_c   10.89923958
_cell_angle_alpha   87.92910293
_cell_angle_beta   90.00000000
_cell_angle_gamma   90.00000000
_symmetry_Int_Tables_number   1
_chemical_formula_structural   PrSiPd
_chemical_formula_sum   'Pr8 Si8 Pd8'
_cell_volume   506.15672590
_cell_formula_units_Z   8
loop_
 _symmetry_equiv_pos_site_id
 _symmetry_equiv_pos_as_xyz
  1  'x, y, z'
loop_
 _atom_site_type_symbol
 _atom_site_label
 _atom_site_symmetry_multiplicity
 _atom_site_fract_x
 _atom_site_fract_y
 _atom_site_fract_z
 _atom_site_occupancy
  Pr  Pr0  1  0.63224048  0.32641332  0.37036675  1
  Pr  Pr1  1  0.13224048  0.17358668  0.62963325  1
  Pr  Pr2  1  0.36775705  0.67360519  0.62963300  1
  Pr  Pr3  1  0.86775705  0.82639481  0.37036700  1
  Pr  Pr4  1  0.13625299  0.46654440  0.14224900  1
  Pr  Pr5  1  0.63625299  0.03345560  0.85775100  1
  Pr  Pr6  1  0.86374827  0.53349486  0.85775287  1
  Pr  Pr7  1  0.36374827  0.96650514  0.14224713  1
  Si  Si8  1  0.63166361  0.03452924  0.57742743  1
  Si  Si9  1  0.13166361  0.46547076  0.42257257  1
  Si  Si10  1  0.36833328  0.96545665  0.42257422  1
  Si  Si11  1  0.86833328  0.53454335  0.57742578  1
  Si  Si12  1  0.85893111  0.12614197  0.14210892  1
  Si  Si13  1  0.35893111  0.37385803  0.85789108  1
  Si  Si14  1  0.14107150  0.87384825  0.85789339  1
  Si  Si15  1  0.64107150  0.62615175  0.14210661  1
  Pd  Pd16  1  0.89993623  0.83793898  0.05235239  1
  Pd  Pd17  1  0.39993623  0.66206102  0.94764761  1
  Pd  Pd18  1  0.10006307  0.16204626  0.94764589  1
  Pd  Pd19  1  0.60006307  0.33795374  0.05235411  1
  Pd  Pd20  1  0.89097464  0.82136870  0.66912220  1
  Pd  Pd21  1  0.39097464  0.67863130  0.33087780  1
  Pd  Pd22  1  0.10902677  0.17861373  0.33087594  1
  Pd  Pd23  1  0.60902677  0.32138627  0.66912406  1
