# generated using pymatgen
data_Ge(BiTe2)2
_symmetry_space_group_name_H-M   'P 1'
_cell_length_a   14.48606426
_cell_length_b   14.48606426
_cell_length_c   14.48606432
_cell_angle_alpha   17.30676117
_cell_angle_beta   17.30676117
_cell_angle_gamma   17.30675994
_symmetry_Int_Tables_number   1
_chemical_formula_structural   Ge(BiTe2)2
_chemical_formula_sum   'Ge1 Bi2 Te4'
_cell_volume   234.75156153
_cell_formula_units_Z   1
loop_
 _symmetry_equiv_pos_site_id
 _symmetry_equiv_pos_as_xyz
  1  'x, y, z'
loop_
 _atom_site_type_symbol
 _atom_site_label
 _atom_site_symmetry_multiplicity
 _atom_site_fract_x
 _atom_site_fract_y
 _atom_site_fract_z
 _atom_site_occupancy
  Ge  Ge0  1  -0.00000000  -0.00000000  0.00000000  1
  Bi  Bi1  1  0.57873126  0.57873126  0.57873126  1
  Bi  Bi2  1  0.42126874  0.42126874  0.42126874  1
  Te  Te3  1  0.87144900  0.87144900  0.87144900  1
  Te  Te4  1  0.12855100  0.12855100  0.12855100  1
  Te  Te5  1  0.70551065  0.70551065  0.70551065  1
  Te  Te6  1  0.29448935  0.29448935  0.29448935  1
