# generated using pymatgen
data_KScF4
_symmetry_space_group_name_H-M   'P 1'
_cell_length_a   8.02127203
_cell_length_b   8.02127203
_cell_length_c   13.33223753
_cell_angle_alpha   72.48081831
_cell_angle_beta   72.48081831
_cell_angle_gamma   29.49799881
_symmetry_Int_Tables_number   1
_chemical_formula_structural   KScF4
_chemical_formula_sum   'K4 Sc4 F16'
_cell_volume   401.39352123
_cell_formula_units_Z   4
loop_
 _symmetry_equiv_pos_site_id
 _symmetry_equiv_pos_as_xyz
  1  'x, y, z'
loop_
 _atom_site_type_symbol
 _atom_site_label
 _atom_site_symmetry_multiplicity
 _atom_site_fract_x
 _atom_site_fract_y
 _atom_site_fract_z
 _atom_site_occupancy
  K  K0  1  0.24444325  0.24444325  0.86513372  1
  K  K1  1  0.75555675  0.75555675  0.13486628  1
  K  K2  1  0.63825782  0.63825782  0.63601471  1
  K  K3  1  0.36174218  0.36174218  0.36398529  1
  Sc  Sc4  1  0.87797147  0.87797147  0.61435096  1
  Sc  Sc5  1  0.12202853  0.12202853  0.38564904  1
  Sc  Sc6  1  0.97335151  0.97335151  0.86000454  1
  Sc  Sc7  1  0.02664849  0.02664849  0.13999546  1
  F  F8  1  -0.00000000  -0.00000000  0.50000000  1
  F  F9  1  -0.00000000  -0.00000000  0.00000000  1
  F  F10  1  0.95529480  0.95529480  0.71542185  1
  F  F11  1  0.04470520  0.04470520  0.28457815  1
  F  F12  1  0.47174366  0.47174366  0.85584379  1
  F  F13  1  0.52825634  0.52825634  0.14415621  1
  F  F14  1  0.76503667  0.76503667  0.73378910  1
  F  F15  1  0.23496333  0.23496333  0.26621090  1
  F  F16  1  0.89505677  0.89505677  0.21829608  1
  F  F17  1  0.10494323  0.10494323  0.78170392  1
  F  F18  1  0.61929926  0.61929926  0.38160436  1
  F  F19  1  0.38070074  0.38070074  0.61839564  1
  F  F20  1  0.18032571  0.18032571  0.49623448  1
  F  F21  1  0.81967429  0.81967429  0.50376552  1
  F  F22  1  0.16117527  0.16117527  0.07102770  1
  F  F23  1  0.83882473  0.83882473  0.92897230  1
