# generated using pymatgen
data_PrSnPd
_symmetry_space_group_name_H-M   'P 1'
_cell_length_a   4.72733922
_cell_length_b   7.58469446
_cell_length_c   8.00745778
_cell_angle_alpha   90.00005212
_cell_angle_beta   89.99999258
_cell_angle_gamma   90.00000000
_symmetry_Int_Tables_number   1
_chemical_formula_structural   PrSnPd
_chemical_formula_sum   'Pr4 Sn4 Pd4'
_cell_volume   287.11079060
_cell_formula_units_Z   4
loop_
 _symmetry_equiv_pos_site_id
 _symmetry_equiv_pos_as_xyz
  1  'x, y, z'
loop_
 _atom_site_type_symbol
 _atom_site_label
 _atom_site_symmetry_multiplicity
 _atom_site_fract_x
 _atom_site_fract_y
 _atom_site_fract_z
 _atom_site_occupancy
  Pr  Pr0  1  0.25000000  0.48745585  0.29825921  1
  Pr  Pr1  1  0.75000000  0.51254361  0.70173938  1
  Pr  Pr2  1  0.25000000  0.98746932  0.20165994  1
  Pr  Pr3  1  0.75000000  0.01252961  0.79834053  1
  Sn  Sn4  1  0.25000000  0.81219312  0.58779825  1
  Sn  Sn5  1  0.75000000  0.68777113  0.08774817  1
  Sn  Sn6  1  0.25000000  0.31222959  0.91224953  1
  Sn  Sn7  1  0.75000000  0.18780720  0.41220481  1
  Pd  Pd8  1  0.75000000  0.30132807  0.08383001  1
  Pd  Pd9  1  0.25000000  0.19868780  0.58384342  1
  Pd  Pd10  1  0.75000000  0.80131172  0.41615638  1
  Pd  Pd11  1  0.25000000  0.69867298  0.91617138  1
