# generated using pymatgen
data_Sc7NCl12
_symmetry_space_group_name_H-M   'P 1'
_cell_length_a   8.05212396
_cell_length_b   8.05212397
_cell_length_c   8.05212464
_cell_angle_alpha   107.54190193
_cell_angle_beta   107.54190189
_cell_angle_gamma   107.54190398
_symmetry_Int_Tables_number   1
_chemical_formula_structural   Sc7NCl12
_chemical_formula_sum   'Sc7 N1 Cl12'
_cell_volume   428.19774744
_cell_formula_units_Z   1
loop_
 _symmetry_equiv_pos_site_id
 _symmetry_equiv_pos_as_xyz
  1  'x, y, z'
loop_
 _atom_site_type_symbol
 _atom_site_label
 _atom_site_symmetry_multiplicity
 _atom_site_fract_x
 _atom_site_fract_y
 _atom_site_fract_z
 _atom_site_occupancy
  Sc  Sc0  1  0.30119105  0.02816261  0.09966637  1
  Sc  Sc1  1  0.02816261  0.09966637  0.30119105  1
  Sc  Sc2  1  0.09966637  0.30119105  0.02816261  1
  Sc  Sc3  1  0.69880895  0.97183739  0.90033363  1
  Sc  Sc4  1  0.97183739  0.90033363  0.69880895  1
  Sc  Sc5  1  0.90033363  0.69880895  0.97183739  1
  Sc  Sc6  1  0.50000000  0.50000000  0.50000000  1
  N  N7  1  0.00000000  -0.00000000  -0.00000000  1
  Cl  Cl8  1  0.46055725  0.38186543  0.15270163  1
  Cl  Cl9  1  0.38186543  0.15270163  0.46055725  1
  Cl  Cl10  1  0.15270163  0.46055725  0.38186543  1
  Cl  Cl11  1  0.53944275  0.61813457  0.84729837  1
  Cl  Cl12  1  0.61813457  0.84729837  0.53944275  1
  Cl  Cl13  1  0.84729837  0.53944275  0.61813457  1
  Cl  Cl14  1  0.22454490  0.68709767  0.07702349  1
  Cl  Cl15  1  0.07702349  0.22454490  0.68709767  1
  Cl  Cl16  1  0.68709767  0.07702349  0.22454490  1
  Cl  Cl17  1  0.77545510  0.31290233  0.92297651  1
  Cl  Cl18  1  0.92297651  0.77545510  0.31290233  1
  Cl  Cl19  1  0.31290233  0.92297651  0.77545510  1
