# generated using pymatgen
data_Ca(HO)2
_symmetry_space_group_name_H-M   'P 1'
_cell_length_a   3.58771637
_cell_length_b   3.58771637
_cell_length_c   4.80877338
_cell_angle_alpha   88.79166898
_cell_angle_beta   88.79166898
_cell_angle_gamma   60.00185809
_symmetry_Int_Tables_number   1
_chemical_formula_structural   Ca(HO)2
_chemical_formula_sum   'Ca1 H2 O2'
_cell_volume   53.58959624
_cell_formula_units_Z   1
loop_
 _symmetry_equiv_pos_site_id
 _symmetry_equiv_pos_as_xyz
  1  'x, y, z'
loop_
 _atom_site_type_symbol
 _atom_site_label
 _atom_site_symmetry_multiplicity
 _atom_site_fract_x
 _atom_site_fract_y
 _atom_site_fract_z
 _atom_site_occupancy
  Ca  Ca0  1  0.08574132  0.91425868  0.00000000  1
  H  H1  1  0.76710645  0.57841330  0.56001161  1
  H  H2  1  0.42158670  0.23289355  0.43998839  1
  O  O3  1  0.75740132  0.58574279  0.76081431  1
  O  O4  1  0.41425721  0.24259868  0.23918569  1
