# generated using pymatgen
data_CeZrF7
_symmetry_space_group_name_H-M   'P 1'
_cell_length_a   5.87326807
_cell_length_b   6.27604736
_cell_length_c   8.47999323
_cell_angle_alpha   77.59889363
_cell_angle_beta   90.00000000
_cell_angle_gamma   90.00000000
_symmetry_Int_Tables_number   1
_chemical_formula_structural   CeZrF7
_chemical_formula_sum   'Ce2 Zr2 F14'
_cell_volume   305.28717345
_cell_formula_units_Z   2
loop_
 _symmetry_equiv_pos_site_id
 _symmetry_equiv_pos_as_xyz
  1  'x, y, z'
loop_
 _atom_site_type_symbol
 _atom_site_label
 _atom_site_symmetry_multiplicity
 _atom_site_fract_x
 _atom_site_fract_y
 _atom_site_fract_z
 _atom_site_occupancy
  Ce  Ce0  1  0.24329528  0.84159893  0.18796969  1
  Ce  Ce1  1  0.74329528  0.15840107  0.81203031  1
  Zr  Zr2  1  0.75215019  0.31077189  0.27567178  1
  Zr  Zr3  1  0.25215019  0.68922811  0.72432822  1
  F  F4  1  0.47300321  0.44169562  0.72785293  1
  F  F5  1  0.03661317  0.94201682  0.71096437  1
  F  F6  1  0.00197965  0.46302951  0.74122260  1
  F  F7  1  0.02986001  0.11765101  0.28518752  1
  F  F8  1  0.97300321  0.55830438  0.27214707  1
  F  F9  1  0.42473726  0.05567028  0.97394044  1
  F  F10  1  0.92473726  0.94432972  0.02605956  1
  F  F11  1  0.24461665  0.74171222  0.48216881  1
  F  F12  1  0.52986001  0.88234899  0.71481248  1
  F  F13  1  0.53661317  0.05798318  0.28903563  1
  F  F14  1  0.50197965  0.53697049  0.25877740  1
  F  F15  1  0.74461665  0.25828778  0.51783119  1
  F  F16  1  0.75354557  0.35997611  0.03276290  1
  F  F17  1  0.25354557  0.64002389  0.96723710  1
