# generated using pymatgen
data_CsBe2F5
_symmetry_space_group_name_H-M   'P 1'
_cell_length_a   7.88590443
_cell_length_b   7.88590443
_cell_length_c   7.88590443
_cell_angle_alpha   90.00000000
_cell_angle_beta   90.00000000
_cell_angle_gamma   90.00000000
_symmetry_Int_Tables_number   1
_chemical_formula_structural   CsBe2F5
_chemical_formula_sum   'Cs4 Be8 F20'
_cell_volume   490.40459247
_cell_formula_units_Z   4
loop_
 _symmetry_equiv_pos_site_id
 _symmetry_equiv_pos_as_xyz
  1  'x, y, z'
loop_
 _atom_site_type_symbol
 _atom_site_label
 _atom_site_symmetry_multiplicity
 _atom_site_fract_x
 _atom_site_fract_y
 _atom_site_fract_z
 _atom_site_occupancy
  Cs  Cs0  1  0.87500000  0.12500000  0.62500000  1
  Cs  Cs1  1  0.12500000  0.62500000  0.87500000  1
  Cs  Cs2  1  0.62500000  0.87500000  0.12500000  1
  Cs  Cs3  1  0.37500000  0.37500000  0.37500000  1
  Be  Be4  1  0.10398673  0.10398673  0.10398673  1
  Be  Be5  1  0.64601327  0.64601327  0.64601327  1
  Be  Be6  1  0.89601327  0.60398673  0.39601327  1
  Be  Be7  1  0.60398673  0.39601327  0.89601327  1
  Be  Be8  1  0.39601327  0.89601327  0.60398673  1
  Be  Be9  1  0.35398673  0.14601327  0.85398673  1
  Be  Be10  1  0.85398673  0.35398673  0.14601327  1
  Be  Be11  1  0.14601327  0.85398673  0.35398673  1
  F  F12  1  0.62500000  0.45834718  0.70834718  1
  F  F13  1  0.79165282  0.37500000  0.95834718  1
  F  F14  1  0.70834718  0.62500000  0.45834718  1
  F  F15  1  0.54165282  0.20834718  0.87500000  1
  F  F16  1  0.99483278  0.99483278  0.99483278  1
  F  F17  1  0.24483278  0.25516722  0.74483278  1
  F  F18  1  0.74483278  0.24483278  0.25516722  1
  F  F19  1  0.25516722  0.74483278  0.24483278  1
  F  F20  1  0.50516722  0.00516722  0.49483278  1
  F  F21  1  0.49483278  0.50516722  0.00516722  1
  F  F22  1  0.00516722  0.49483278  0.50516722  1
  F  F23  1  0.75516722  0.75516722  0.75516722  1
  F  F24  1  0.12500000  0.04165282  0.29165282  1
  F  F25  1  0.37500000  0.95834718  0.79165282  1
  F  F26  1  0.87500000  0.54165282  0.20834718  1
  F  F27  1  0.04165282  0.29165282  0.12500000  1
  F  F28  1  0.95834718  0.79165282  0.37500000  1
  F  F29  1  0.20834718  0.87500000  0.54165282  1
  F  F30  1  0.29165282  0.12500000  0.04165282  1
  F  F31  1  0.45834718  0.70834718  0.62500000  1
