# generated using pymatgen
data_Rb3Cu2Cl7
_symmetry_space_group_name_H-M   'P 1'
_cell_length_a   12.98443951
_cell_length_b   12.98443951
_cell_length_c   7.16394626
_cell_angle_alpha   90.00000000
_cell_angle_beta   90.00000000
_cell_angle_gamma   148.01648511
_symmetry_Int_Tables_number   1
_chemical_formula_structural   Rb3Cu2Cl7
_chemical_formula_sum   'Rb6 Cu4 Cl14'
_cell_volume   639.74722166
_cell_formula_units_Z   2
loop_
 _symmetry_equiv_pos_site_id
 _symmetry_equiv_pos_as_xyz
  1  'x, y, z'
loop_
 _atom_site_type_symbol
 _atom_site_label
 _atom_site_symmetry_multiplicity
 _atom_site_fract_x
 _atom_site_fract_y
 _atom_site_fract_z
 _atom_site_occupancy
  Rb  Rb0  1  0.82080732  0.17919268  0.50000000  1
  Rb  Rb1  1  0.17919268  0.82080732  0.50000000  1
  Rb  Rb2  1  0.67919268  0.32080732  -0.00000000  1
  Rb  Rb3  1  0.32080732  0.67919268  -0.00000000  1
  Rb  Rb4  1  -0.00000000  0.00000000  0.50000000  1
  Rb  Rb5  1  0.50000000  0.50000000  -0.00000000  1
  Cu  Cu6  1  0.59417090  0.40582910  0.50000000  1
  Cu  Cu7  1  0.40582910  0.59417090  0.50000000  1
  Cu  Cu8  1  0.90582910  0.09417090  -0.00000000  1
  Cu  Cu9  1  0.09417090  0.90582910  -0.00000000  1
  Cl  Cl10  1  0.31227560  0.12900453  0.77944872  1
  Cl  Cl11  1  0.12900453  0.31227560  0.22055128  1
  Cl  Cl12  1  0.68772440  0.87099547  0.77944872  1
  Cl  Cl13  1  0.87099547  0.68772440  0.22055128  1
  Cl  Cl14  1  0.18772440  0.37099547  0.72055128  1
  Cl  Cl15  1  0.37099547  0.18772440  0.27944872  1
  Cl  Cl16  1  0.81227560  0.62900453  0.72055128  1
  Cl  Cl17  1  0.62900453  0.81227560  0.27944872  1
  Cl  Cl18  1  0.68870995  0.31129005  0.50000000  1
  Cl  Cl19  1  0.31129005  0.68870995  0.50000000  1
  Cl  Cl20  1  0.50000000  0.50000000  0.50000000  1
  Cl  Cl21  1  -0.00000000  0.00000000  -0.00000000  1
  Cl  Cl22  1  0.18870995  0.81129005  -0.00000000  1
  Cl  Cl23  1  0.81129005  0.18870995  -0.00000000  1
