# generated using pymatgen
data_CaPHO4
_symmetry_space_group_name_H-M   'P 1'
_cell_length_a   6.61753766
_cell_length_b   6.88992704
_cell_length_c   6.98009120
_cell_angle_alpha   75.83963236
_cell_angle_beta   83.57379713
_cell_angle_gamma   88.42936623
_symmetry_Int_Tables_number   1
_chemical_formula_structural   CaPHO4
_chemical_formula_sum   'Ca4 P4 H4 O16'
_cell_volume   306.64368559
_cell_formula_units_Z   4
loop_
 _symmetry_equiv_pos_site_id
 _symmetry_equiv_pos_as_xyz
  1  'x, y, z'
loop_
 _atom_site_type_symbol
 _atom_site_label
 _atom_site_symmetry_multiplicity
 _atom_site_fract_x
 _atom_site_fract_y
 _atom_site_fract_z
 _atom_site_occupancy
  Ca  Ca0  1  0.56038656  0.70033571  0.27229526  1
  Ca  Ca1  1  0.43852612  0.28958574  0.73100588  1
  Ca  Ca2  1  0.16191706  0.83730772  0.66860736  1
  Ca  Ca3  1  0.83149535  0.18647024  0.33553393  1
  P  P4  1  0.62121568  0.78923591  0.71641725  1
  P  P5  1  0.37562279  0.20637190  0.27678101  1
  P  P6  1  0.04895949  0.69409190  0.20673693  1
  P  P7  1  0.94260245  0.28893919  0.78906983  1
  H  H8  1  0.11947911  0.53050064  0.54049724  1
  H  H9  1  0.26223127  0.46569083  0.04603850  1
  H  H10  1  0.74492949  0.53989587  0.94861158  1
  H  H11  1  0.00158131  0.99110187  0.02391003  1
  O  O12  1  0.78913091  0.27519822  0.65047149  1
  O  O13  1  0.19572748  0.69095136  0.36277770  1
  O  O14  1  0.08203886  0.10549647  0.83112690  1
  O  O15  1  0.94060874  0.90585234  0.16101584  1
  O  O16  1  0.66759960  0.67365958  0.93445831  1
  O  O17  1  0.33440622  0.32849358  0.05952973  1
  O  O18  1  0.50495288  0.64592748  0.63034624  1
  O  O19  1  0.48575828  0.34709858  0.37078614  1
  O  O20  1  0.82017075  0.85823734  0.59175853  1
  O  O21  1  0.17486227  0.13631485  0.39724871  1
  O  O22  1  0.47815087  0.95810975  0.74277525  1
  O  O23  1  0.51914200  0.03833447  0.24869037  1
  O  O24  1  0.16901954  0.66972014  0.01457487  1
  O  O25  1  0.84537813  0.33510368  0.98023906  1
  O  O26  1  0.88103108  0.54325396  0.28668936  1
  O  O27  1  0.10157470  0.46591667  0.69010970  1
