# generated using pymatgen
data_LaAgGe
_symmetry_space_group_name_H-M   'P 1'
_cell_length_a   4.55489922
_cell_length_b   4.55489739
_cell_length_c   8.01897817
_cell_angle_alpha   90.00000000
_cell_angle_beta   90.00000000
_cell_angle_gamma   119.99999847
_symmetry_Int_Tables_number   1
_chemical_formula_structural   LaAgGe
_chemical_formula_sum   'La2 Ag2 Ge2'
_cell_volume   144.08110819
_cell_formula_units_Z   2
loop_
 _symmetry_equiv_pos_site_id
 _symmetry_equiv_pos_as_xyz
  1  'x, y, z'
loop_
 _atom_site_type_symbol
 _atom_site_label
 _atom_site_symmetry_multiplicity
 _atom_site_fract_x
 _atom_site_fract_y
 _atom_site_fract_z
 _atom_site_occupancy
  La  La0  1  0.00000000  -0.00000000  0.24295193  1
  La  La1  1  0.00000000  -0.00000000  0.74295193  1
  Ag  Ag2  1  0.66666700  0.33333300  0.50478347  1
  Ag  Ag3  1  0.33333300  0.66666700  0.00478347  1
  Ge  Ge4  1  0.66666700  0.33333300  0.96186460  1
  Ge  Ge5  1  0.33333300  0.66666700  0.46186460  1
