# generated using pymatgen
data_NaCu3F7
_symmetry_space_group_name_H-M   'P 1'
_cell_length_a   7.04156512
_cell_length_b   7.04154515
_cell_length_c   6.87689971
_cell_angle_alpha   63.89944543
_cell_angle_beta   63.89998534
_cell_angle_gamma   61.99615579
_symmetry_Int_Tables_number   1
_chemical_formula_structural   NaCu3F7
_chemical_formula_sum   'Na2 Cu6 F14'
_cell_volume   258.38057228
_cell_formula_units_Z   2
loop_
 _symmetry_equiv_pos_site_id
 _symmetry_equiv_pos_as_xyz
  1  'x, y, z'
loop_
 _atom_site_type_symbol
 _atom_site_label
 _atom_site_symmetry_multiplicity
 _atom_site_fract_x
 _atom_site_fract_y
 _atom_site_fract_z
 _atom_site_occupancy
  Na  Na0  1  0.50000162  0.50000051  0.00000161  1
  Na  Na1  1  0.49999972  0.49999825  0.49999886  1
  Cu  Cu2  1  0.49999831  -0.00000187  0.50000201  1
  Cu  Cu3  1  0.00000011  0.50000074  -0.00000208  1
  Cu  Cu4  1  0.00000020  -0.00000016  0.49999992  1
  Cu  Cu5  1  0.00000045  -0.00000124  0.00000050  1
  Cu  Cu6  1  -0.00000199  0.49999935  0.50000154  1
  Cu  Cu7  1  0.50000082  0.00000216  -0.00000027  1
  F  F8  1  0.11073595  0.88926470  0.24999848  1
  F  F9  1  0.88926646  0.11073281  0.75000114  1
  F  F10  1  0.62075685  0.68845445  0.10657534  1
  F  F11  1  0.31156086  0.37924007  0.39341164  1
  F  F12  1  0.37924413  0.31154855  0.89342392  1
  F  F13  1  0.68843559  0.62075926  0.60659045  1
  F  F14  1  0.62972108  0.02928343  0.17994877  1
  F  F15  1  0.97071376  0.37028058  0.32004028  1
  F  F16  1  0.88543304  0.30288184  0.00172003  1
  F  F17  1  0.69711738  0.11456794  0.49827399  1
  F  F18  1  0.11456992  0.69712469  0.99828007  1
  F  F19  1  0.30288031  0.88542838  0.50172192  1
  F  F20  1  0.02928658  0.62971970  0.67996291  1
  F  F21  1  0.37027886  0.97071586  0.82004895  1
