# generated using pymatgen
data_EuInPd
_symmetry_space_group_name_H-M   'P 1'
_cell_length_a   4.51565677
_cell_length_b   7.44337776
_cell_length_c   8.50195905
_cell_angle_alpha   90.00356032
_cell_angle_beta   89.99998026
_cell_angle_gamma   90.00001471
_symmetry_Int_Tables_number   1
_chemical_formula_structural   EuInPd
_chemical_formula_sum   'Eu4 In4 Pd4'
_cell_volume   285.76562978
_cell_formula_units_Z   4
loop_
 _symmetry_equiv_pos_site_id
 _symmetry_equiv_pos_as_xyz
  1  'x, y, z'
loop_
 _atom_site_type_symbol
 _atom_site_label
 _atom_site_symmetry_multiplicity
 _atom_site_fract_x
 _atom_site_fract_y
 _atom_site_fract_z
 _atom_site_occupancy
  Eu  Eu0  1  0.24999985  0.53532323  0.82106019  1
  Eu  Eu1  1  0.75000030  0.46467821  0.17894086  1
  Eu  Eu2  1  0.25000005  0.03531695  0.67898614  1
  Eu  Eu3  1  0.75000024  0.96468013  0.32100699  1
  In  In4  1  0.25000012  0.14374391  0.06281427  1
  In  In5  1  0.74999991  0.35626220  0.56283984  1
  In  In6  1  0.25000005  0.64374472  0.43716508  1
  In  In7  1  0.74999994  0.85625942  0.93718071  1
  Pd  Pd8  1  0.74999985  0.23047315  0.87575176  1
  Pd  Pd9  1  0.24999992  0.26948992  0.37572287  1
  Pd  Pd10  1  0.74999988  0.73050947  0.62424827  1
  Pd  Pd11  1  0.24999986  0.76951968  0.12428401  1
