# generated using pymatgen
data_RbB3O5
_symmetry_space_group_name_H-M   'P 1'
_cell_length_a   6.15505139
_cell_length_b   8.47198793
_cell_length_c   8.74377990
_cell_angle_alpha   90.00000000
_cell_angle_beta   90.00000000
_cell_angle_gamma   90.00000000
_symmetry_Int_Tables_number   1
_chemical_formula_structural   RbB3O5
_chemical_formula_sum   'Rb4 B12 O20'
_cell_volume   455.94895913
_cell_formula_units_Z   4
loop_
 _symmetry_equiv_pos_site_id
 _symmetry_equiv_pos_as_xyz
  1  'x, y, z'
loop_
 _atom_site_type_symbol
 _atom_site_label
 _atom_site_symmetry_multiplicity
 _atom_site_fract_x
 _atom_site_fract_y
 _atom_site_fract_z
 _atom_site_occupancy
  Rb  Rb0  1  0.36631088  0.65846585  0.10244568  1
  Rb  Rb1  1  0.86631088  0.84153415  0.89755432  1
  Rb  Rb2  1  0.63368912  0.15846585  0.39755432  1
  Rb  Rb3  1  0.13368912  0.34153415  0.60244568  1
  B  B4  1  0.86894185  0.79088882  0.29878012  1
  B  B5  1  0.36894185  0.70911118  0.70121988  1
  B  B6  1  0.13105815  0.29088882  0.20121988  1
  B  B7  1  0.63105815  0.20911118  0.79878012  1
  B  B8  1  0.13050417  0.00078983  0.24222887  1
  B  B9  1  0.63050417  0.49921017  0.75777113  1
  B  B10  1  0.78544150  0.61968135  0.51071177  1
  B  B11  1  0.28544150  0.88031865  0.48928823  1
  B  B12  1  0.21455850  0.11968135  0.98928823  1
  B  B13  1  0.71455850  0.38031865  0.01071177  1
  B  B14  1  0.86949583  0.50078983  0.25777113  1
  B  B15  1  0.36949583  0.99921017  0.74222887  1
  O  O16  1  0.78501396  0.49291529  0.41519745  1
  O  O17  1  0.90524846  0.93982463  0.24445123  1
  O  O18  1  0.59475154  0.06017537  0.74445123  1
  O  O19  1  0.40524846  0.56017537  0.75554877  1
  O  O20  1  0.76566746  0.60495322  0.66483237  1
  O  O21  1  0.26566746  0.89504678  0.33516763  1
  O  O22  1  0.23433254  0.10495322  0.83516763  1
  O  O23  1  0.73433254  0.39504678  0.16483237  1
  O  O24  1  0.67690372  0.22920037  0.95295154  1
  O  O25  1  0.17690372  0.27079963  0.04704846  1
  O  O26  1  0.32309628  0.72920037  0.54704846  1
  O  O27  1  0.82309628  0.77079963  0.45295154  1
  O  O28  1  0.21498604  0.99291529  0.08480255  1
  O  O29  1  0.71498604  0.50708471  0.91519745  1
  O  O30  1  0.86968060  0.66478651  0.20151379  1
  O  O31  1  0.36968060  0.83521349  0.79848621  1
  O  O32  1  0.13031940  0.16478651  0.29848621  1
  O  O33  1  0.63031940  0.33521349  0.70151379  1
  O  O34  1  0.09475154  0.43982463  0.25554877  1
  O  O35  1  0.28501396  0.00708471  0.58480255  1
