# generated using pymatgen
data_MgH2SO5
_symmetry_space_group_name_H-M   'P 1'
_cell_length_a   5.14386453
_cell_length_b   5.14386453
_cell_length_c   7.47893460
_cell_angle_alpha   73.20675479
_cell_angle_beta   73.20675479
_cell_angle_gamma   98.11746711
_symmetry_Int_Tables_number   1
_chemical_formula_structural   MgH2SO5
_chemical_formula_sum   'Mg2 H4 S2 O10'
_cell_volume   175.83518869
_cell_formula_units_Z   2
loop_
 _symmetry_equiv_pos_site_id
 _symmetry_equiv_pos_as_xyz
  1  'x, y, z'
loop_
 _atom_site_type_symbol
 _atom_site_label
 _atom_site_symmetry_multiplicity
 _atom_site_fract_x
 _atom_site_fract_y
 _atom_site_fract_z
 _atom_site_occupancy
  Mg  Mg0  1  0.50000000  0.00000000  0.00000000  1
  Mg  Mg1  1  0.00000000  0.50000000  0.50000000  1
  H  H2  1  0.95440245  0.86688842  0.20570642  1
  H  H3  1  0.13311158  0.04559755  0.29429358  1
  H  H4  1  0.04559755  0.13311158  0.79429358  1
  H  H5  1  0.86688842  0.95440245  0.70570642  1
  S  S6  1  0.41173171  0.58826829  0.75000000  1
  S  S7  1  0.58826829  0.41173171  0.25000000  1
  O  O8  1  0.28081316  0.67104771  0.60020565  1
  O  O9  1  0.32895229  0.71918684  0.89979435  1
  O  O10  1  0.71918684  0.32895229  0.39979435  1
  O  O11  1  0.67104771  0.28081316  0.10020565  1
  O  O12  1  0.32538370  0.27861010  0.84528632  1
  O  O13  1  0.72138990  0.67461630  0.65471368  1
  O  O14  1  0.67461630  0.72138990  0.15471368  1
  O  O15  1  0.27861010  0.32538370  0.34528632  1
  O  O16  1  0.88176664  0.11823336  0.75000000  1
  O  O17  1  0.11823336  0.88176664  0.25000000  1
