# generated using pymatgen
data_Na2Mn2S3
_symmetry_space_group_name_H-M   'P 1'
_cell_length_a   9.97629558
_cell_length_b   9.97629558
_cell_length_c   6.91928888
_cell_angle_alpha   70.23652318
_cell_angle_beta   70.23652318
_cell_angle_gamma   83.80286329
_symmetry_Int_Tables_number   1
_chemical_formula_structural   Na2Mn2S3
_chemical_formula_sum   'Na8 Mn8 S12'
_cell_volume   609.89785404
_cell_formula_units_Z   4
loop_
 _symmetry_equiv_pos_site_id
 _symmetry_equiv_pos_as_xyz
  1  'x, y, z'
loop_
 _atom_site_type_symbol
 _atom_site_label
 _atom_site_symmetry_multiplicity
 _atom_site_fract_x
 _atom_site_fract_y
 _atom_site_fract_z
 _atom_site_occupancy
  Na  Na0  1  0.98830073  0.81535173  0.12826247  1
  Na  Na1  1  0.18464827  0.01169927  0.37173753  1
  Na  Na2  1  0.01169927  0.18464827  0.87173753  1
  Na  Na3  1  0.81535173  0.98830073  0.62826247  1
  Na  Na4  1  0.28149476  0.71850524  0.25000000  1
  Na  Na5  1  0.71850524  0.28149476  0.75000000  1
  Na  Na6  1  0.57117775  0.42882225  0.25000000  1
  Na  Na7  1  0.42882225  0.57117775  0.75000000  1
  Mn  Mn8  1  0.08360740  0.55613651  0.75483697  1
  Mn  Mn9  1  0.91639260  0.44386349  0.24516303  1
  Mn  Mn10  1  0.55613651  0.08360740  0.25483697  1
  Mn  Mn11  1  0.36426290  0.21718533  0.79740123  1
  Mn  Mn12  1  0.78281467  0.63573710  0.70259877  1
  Mn  Mn13  1  0.63573710  0.78281467  0.20259877  1
  Mn  Mn14  1  0.21718533  0.36426290  0.29740123  1
  Mn  Mn15  1  0.44386349  0.91639260  0.74516303  1
  S  S16  1  0.22753079  0.00033778  0.95318649  1
  S  S17  1  0.00033778  0.22753079  0.45318649  1
  S  S18  1  0.77246921  -0.00033778  0.04681351  1
  S  S19  1  0.58119565  0.14470688  0.55534342  1
  S  S20  1  0.85529312  0.41880435  0.94465658  1
  S  S21  1  0.41880435  0.85529312  0.44465658  1
  S  S22  1  -0.00033778  0.77246921  0.54681351  1
  S  S23  1  0.14470688  0.58119565  0.05534342  1
  S  S24  1  0.43242341  0.28171306  0.06426882  1
  S  S25  1  0.71828694  0.56757659  0.43573118  1
  S  S26  1  0.56757659  0.71828694  0.93573118  1
  S  S27  1  0.28171306  0.43242341  0.56426882  1
