# generated using pymatgen
data_Pr3(BN2)2
_symmetry_space_group_name_H-M   'P 1'
_cell_length_a   3.58239344
_cell_length_b   6.34470388
_cell_length_c   6.56154970
_cell_angle_alpha   118.91267040
_cell_angle_beta   105.84191177
_cell_angle_gamma   89.99999033
_symmetry_Int_Tables_number   1
_chemical_formula_structural   Pr3(BN2)2
_chemical_formula_sum   'Pr3 B2 N4'
_cell_volume   124.03938382
_cell_formula_units_Z   1
loop_
 _symmetry_equiv_pos_site_id
 _symmetry_equiv_pos_as_xyz
  1  'x, y, z'
loop_
 _atom_site_type_symbol
 _atom_site_label
 _atom_site_symmetry_multiplicity
 _atom_site_fract_x
 _atom_site_fract_y
 _atom_site_fract_z
 _atom_site_occupancy
  Pr  Pr0  1  0.20161063  0.70161063  0.40322025  1
  Pr  Pr1  1  0.79838937  0.29838937  0.59678075  1
  Pr  Pr2  1  -0.00000000  -0.00000000  -0.00000000  1
  B  B3  1  0.50000000  0.35758601  0.00000000  1
  B  B4  1  0.50000000  0.64241399  -0.00000000  1
  N  N5  1  0.61805011  0.36286466  0.23610022  1
  N  N6  1  0.61805011  0.87323656  0.23610022  1
  N  N7  1  0.38194989  0.12676344  0.76389978  1
  N  N8  1  0.38194989  0.63713534  0.76389978  1
