# generated using pymatgen
data_YBO3
_symmetry_space_group_name_H-M   'P 1'
_cell_length_a   6.54242982
_cell_length_b   6.54242982
_cell_length_c   8.82893208
_cell_angle_alpha   90.00000000
_cell_angle_beta   90.00000000
_cell_angle_gamma   120.08127124
_symmetry_Int_Tables_number   1
_chemical_formula_structural   YBO3
_chemical_formula_sum   'Y6 B6 O18'
_cell_volume   327.00975457
_cell_formula_units_Z   6
loop_
 _symmetry_equiv_pos_site_id
 _symmetry_equiv_pos_as_xyz
  1  'x, y, z'
loop_
 _atom_site_type_symbol
 _atom_site_label
 _atom_site_symmetry_multiplicity
 _atom_site_fract_x
 _atom_site_fract_y
 _atom_site_fract_z
 _atom_site_occupancy
  Y  Y0  1  0.32954829  0.67045171  0.50000000  1
  Y  Y1  1  0.32954829  0.67045171  0.00000000  1
  Y  Y2  1  0.00000000  0.00000000  0.50000000  1
  Y  Y3  1  0.00000000  0.00000000  0.00000000  1
  Y  Y4  1  0.67045171  0.32954829  0.50000000  1
  Y  Y5  1  0.67045171  0.32954829  0.00000000  1
  B  B6  1  0.33425861  0.09305122  0.75000000  1
  B  B7  1  0.09305122  0.33425861  0.75000000  1
  B  B8  1  0.57629118  0.57629118  0.75000000  1
  B  B9  1  0.42370882  0.42370882  0.25000000  1
  B  B10  1  0.66574139  0.90694878  0.25000000  1
  B  B11  1  0.90694878  0.66574139  0.25000000  1
  O  O12  1  0.44800454  0.66523018  0.25000000  1
  O  O13  1  0.66523018  0.44800454  0.25000000  1
  O  O14  1  0.88205587  0.88205587  0.25000000  1
  O  O15  1  0.11794413  0.11794413  0.75000000  1
  O  O16  1  0.55199546  0.33476982  0.75000000  1
  O  O17  1  0.33476982  0.55199546  0.75000000  1
  O  O18  1  0.01674550  0.66631003  0.10830563  1
  O  O19  1  0.01674550  0.66631003  0.39169437  1
  O  O20  1  0.66631003  0.01674550  0.10830563  1
  O  O21  1  0.66631003  0.01674550  0.39169437  1
  O  O22  1  0.31524383  0.31524383  0.10637291  1
  O  O23  1  0.31524383  0.31524383  0.39362709  1
  O  O24  1  0.68475617  0.68475617  0.60637291  1
  O  O25  1  0.68475617  0.68475617  0.89362709  1
  O  O26  1  0.98325450  0.33368997  0.60830563  1
  O  O27  1  0.98325450  0.33368997  0.89169437  1
  O  O28  1  0.33368997  0.98325450  0.60830563  1
  O  O29  1  0.33368997  0.98325450  0.89169437  1
