# generated using pymatgen
data_YF3
_symmetry_space_group_name_H-M   'P 1'
_cell_length_a   4.35539975
_cell_length_b   6.38818413
_cell_length_c   6.85619609
_cell_angle_alpha   90.00000000
_cell_angle_beta   90.00000000
_cell_angle_gamma   90.00000000
_symmetry_Int_Tables_number   1
_chemical_formula_structural   YF3
_chemical_formula_sum   'Y4 F12'
_cell_volume   190.76059901
_cell_formula_units_Z   4
loop_
 _symmetry_equiv_pos_site_id
 _symmetry_equiv_pos_as_xyz
  1  'x, y, z'
loop_
 _atom_site_type_symbol
 _atom_site_label
 _atom_site_symmetry_multiplicity
 _atom_site_fract_x
 _atom_site_fract_y
 _atom_site_fract_z
 _atom_site_occupancy
  Y  Y0  1  0.93669724  0.63082763  0.75000000  1
  Y  Y1  1  0.43669724  0.86917237  0.25000000  1
  Y  Y2  1  0.56330276  0.13082763  0.75000000  1
  Y  Y3  1  0.06330276  0.36917237  0.25000000  1
  F  F4  1  0.38135667  0.16554485  0.43706078  1
  F  F5  1  0.88135667  0.33445515  0.56293922  1
  F  F6  1  0.11864333  0.66554485  0.06293922  1
  F  F7  1  0.61864333  0.83445515  0.93706078  1
  F  F8  1  0.58597858  0.52183381  0.25000000  1
  F  F9  1  0.08597858  0.97816619  0.75000000  1
  F  F10  1  0.91402142  0.02183381  0.25000000  1
  F  F11  1  0.41402142  0.47816619  0.75000000  1
  F  F12  1  0.38135667  0.16554485  0.06293922  1
  F  F13  1  0.88135667  0.33445515  0.93706078  1
  F  F14  1  0.11864333  0.66554485  0.43706078  1
  F  F15  1  0.61864333  0.83445515  0.56293922  1
