# generated using pymatgen
data_NdGeRh
_symmetry_space_group_name_H-M   'P 1'
_cell_length_a   4.48835084
_cell_length_b   7.31725266
_cell_length_c   7.25236263
_cell_angle_alpha   90.00000000
_cell_angle_beta   90.00000000
_cell_angle_gamma   90.00000000
_symmetry_Int_Tables_number   1
_chemical_formula_structural   NdGeRh
_chemical_formula_sum   'Nd4 Ge4 Rh4'
_cell_volume   238.18497357
_cell_formula_units_Z   4
loop_
 _symmetry_equiv_pos_site_id
 _symmetry_equiv_pos_as_xyz
  1  'x, y, z'
loop_
 _atom_site_type_symbol
 _atom_site_label
 _atom_site_symmetry_multiplicity
 _atom_site_fract_x
 _atom_site_fract_y
 _atom_site_fract_z
 _atom_site_occupancy
  Nd  Nd0  1  0.25000000  0.48218000  0.31656579  1
  Nd  Nd1  1  0.75000000  0.51782000  0.68343421  1
  Nd  Nd2  1  0.25000000  0.98218000  0.18343421  1
  Nd  Nd3  1  0.75000000  0.01782000  0.81656579  1
  Ge  Ge4  1  0.25000000  0.30207217  0.89339887  1
  Ge  Ge5  1  0.75000000  0.69792783  0.10660113  1
  Ge  Ge6  1  0.25000000  0.80207217  0.60660113  1
  Ge  Ge7  1  0.75000000  0.19792783  0.39339887  1
  Rh  Rh8  1  0.75000000  0.85524507  0.42857732  1
  Rh  Rh9  1  0.25000000  0.14475493  0.57142268  1
  Rh  Rh10  1  0.75000000  0.35524507  0.07142268  1
  Rh  Rh11  1  0.25000000  0.64475493  0.92857732  1
