# generated using pymatgen
data_SmCoO3
_symmetry_space_group_name_H-M   'P 1'
_cell_length_a   5.25554460
_cell_length_b   5.38013421
_cell_length_c   7.49230809
_cell_angle_alpha   90.00000000
_cell_angle_beta   90.00000000
_cell_angle_gamma   90.00000000
_symmetry_Int_Tables_number   1
_chemical_formula_structural   SmCoO3
_chemical_formula_sum   'Sm4 Co4 O12'
_cell_volume   211.84902184
_cell_formula_units_Z   4
loop_
 _symmetry_equiv_pos_site_id
 _symmetry_equiv_pos_as_xyz
  1  'x, y, z'
loop_
 _atom_site_type_symbol
 _atom_site_label
 _atom_site_symmetry_multiplicity
 _atom_site_fract_x
 _atom_site_fract_y
 _atom_site_fract_z
 _atom_site_occupancy
  Sm  Sm0  1  0.51191205  0.55411881  0.25000000  1
  Sm  Sm1  1  0.98808795  0.05411881  0.25000000  1
  Sm  Sm2  1  0.48808795  0.44588119  0.75000000  1
  Sm  Sm3  1  0.01191205  0.94588119  0.75000000  1
  Co  Co4  1  0.50000000  0.00000000  0.00000000  1
  Co  Co5  1  -0.00000000  0.50000000  0.50000000  1
  Co  Co6  1  0.50000000  0.00000000  0.50000000  1
  Co  Co7  1  -0.00000000  0.50000000  0.00000000  1
  O  O8  1  0.41981287  0.98572069  0.25000000  1
  O  O9  1  0.08018713  0.48572069  0.25000000  1
  O  O10  1  0.58018713  0.01427931  0.75000000  1
  O  O11  1  0.91981287  0.51427931  0.75000000  1
  O  O12  1  0.79510200  0.79299241  0.04210551  1
  O  O13  1  0.70489800  0.29299241  0.45789449  1
  O  O14  1  0.20489800  0.20700759  0.54210551  1
  O  O15  1  0.29510200  0.70700759  0.95789449  1
  O  O16  1  0.20489800  0.20700759  0.95789449  1
  O  O17  1  0.29510200  0.70700759  0.54210551  1
  O  O18  1  0.79510200  0.79299241  0.45789449  1
  O  O19  1  0.70489800  0.29299241  0.04210551  1
