# generated using pymatgen
data_ThZr2F12
_symmetry_space_group_name_H-M   'P 1'
_cell_length_a   8.20345620
_cell_length_b   8.20345620
_cell_length_c   7.86962973
_cell_angle_alpha   61.85957969
_cell_angle_beta   61.85957969
_cell_angle_gamma   79.87548995
_symmetry_Int_Tables_number   1
_chemical_formula_structural   ThZr2F12
_chemical_formula_sum   'Th2 Zr4 F24'
_cell_volume   411.05469964
_cell_formula_units_Z   2
loop_
 _symmetry_equiv_pos_site_id
 _symmetry_equiv_pos_as_xyz
  1  'x, y, z'
loop_
 _atom_site_type_symbol
 _atom_site_label
 _atom_site_symmetry_multiplicity
 _atom_site_fract_x
 _atom_site_fract_y
 _atom_site_fract_z
 _atom_site_occupancy
  Th  Th0  1  0.77817022  0.22182978  -0.00000000  1
  Th  Th1  1  0.22182978  0.77817022  -0.00000000  1
  Zr  Zr2  1  0.35110708  0.35110708  0.77359629  1
  Zr  Zr3  1  0.64889292  0.64889292  0.22640371  1
  Zr  Zr4  1  0.18899088  0.18899088  0.42925885  1
  Zr  Zr5  1  0.81100912  0.81100912  0.57074115  1
  F  F6  1  0.44036063  0.69367362  0.13396115  1
  F  F7  1  0.30632638  0.55963937  0.86603885  1
  F  F8  1  0.55963937  0.30632638  0.86603885  1
  F  F9  1  0.69367362  0.44036063  0.13396115  1
  F  F10  1  0.22254760  0.22254760  0.13845827  1
  F  F11  1  0.77745240  0.77745240  0.86154173  1
  F  F12  1  -0.00000000  -0.00000000  -0.00000000  1
  F  F13  1  -0.00000000  -0.00000000  0.50000000  1
  F  F14  1  0.38790795  0.61209205  0.50000000  1
  F  F15  1  0.61209205  0.38790795  0.50000000  1
  F  F16  1  0.83115422  0.53429994  0.72039951  1
  F  F17  1  0.46570006  0.16884578  0.27960049  1
  F  F18  1  0.16884578  0.46570006  0.27960049  1
  F  F19  1  0.53429994  0.83115422  0.72039951  1
  F  F20  1  0.71174950  0.71174950  0.42880354  1
  F  F21  1  0.28825050  0.28825050  0.57119646  1
  F  F22  1  0.93299112  0.64366260  0.11205107  1
  F  F23  1  0.35633740  0.06700888  0.88794893  1
  F  F24  1  0.06700888  0.35633740  0.88794893  1
  F  F25  1  0.64366260  0.93299112  0.11205107  1
  F  F26  1  0.78039742  0.05912633  0.33710015  1
  F  F27  1  0.94087367  0.21960258  0.66289985  1
  F  F28  1  0.21960258  0.94087367  0.66289985  1
  F  F29  1  0.05912633  0.78039742  0.33710015  1
