# generated using pymatgen
data_CaIn
_symmetry_space_group_name_H-M   'P 1'
_cell_length_a   6.68950981
_cell_length_b   6.68950925
_cell_length_c   6.68951000
_cell_angle_alpha   101.92745523
_cell_angle_beta   113.36976154
_cell_angle_gamma   113.36975824
_symmetry_Int_Tables_number   1
_chemical_formula_structural   CaIn
_chemical_formula_sum   'Ca4 In4'
_cell_volume   227.50115006
_cell_formula_units_Z   4
loop_
 _symmetry_equiv_pos_site_id
 _symmetry_equiv_pos_as_xyz
  1  'x, y, z'
loop_
 _atom_site_type_symbol
 _atom_site_label
 _atom_site_symmetry_multiplicity
 _atom_site_fract_x
 _atom_site_fract_y
 _atom_site_fract_z
 _atom_site_occupancy
  Ca  Ca0  1  0.50000000  0.75000000  0.25000000  1
  Ca  Ca1  1  0.50000000  0.25000000  0.75000000  1
  Ca  Ca2  1  0.00000000  0.70679669  0.70679669  1
  Ca  Ca3  1  -0.00000000  0.29320331  0.29320331  1
  In  In4  1  0.56646720  0.78323460  0.78323460  1
  In  In5  1  -0.00000000  0.78323460  0.21676540  1
  In  In6  1  0.00000000  0.21676540  0.78323460  1
  In  In7  1  0.43353280  0.21676540  0.21676540  1
