# generated using pymatgen
data_H6OF4
_symmetry_space_group_name_H-M   'P 1'
_cell_length_a   5.38637855
_cell_length_b   6.11358715
_cell_length_c   6.79370072
_cell_angle_alpha   101.98158675
_cell_angle_beta   113.14703138
_cell_angle_gamma   107.73320216
_symmetry_Int_Tables_number   1
_chemical_formula_structural   H6OF4
_chemical_formula_sum   'H12 O2 F8'
_cell_volume   181.73477181
_cell_formula_units_Z   2
loop_
 _symmetry_equiv_pos_site_id
 _symmetry_equiv_pos_as_xyz
  1  'x, y, z'
loop_
 _atom_site_type_symbol
 _atom_site_label
 _atom_site_symmetry_multiplicity
 _atom_site_fract_x
 _atom_site_fract_y
 _atom_site_fract_z
 _atom_site_occupancy
  H  H0  1  0.56645431  0.77084995  0.00265414  1
  H  H1  1  0.43354569  0.22915005  -0.00265414  1
  H  H2  1  0.40075635  0.52657617  0.76093221  1
  H  H3  1  0.59924365  0.47342383  0.23906779  1
  H  H4  1  0.72553465  0.76055857  0.83840332  1
  H  H5  1  0.27446535  0.23944143  0.16159668  1
  H  H6  1  0.60749800  0.18040635  0.74932735  1
  H  H7  1  0.39250200  0.81959365  0.25067265  1
  H  H8  1  0.87976149  0.30778029  0.60496099  1
  H  H9  1  0.12023851  0.69221971  0.39503901  1
  H  H10  1  0.91285520  0.80978623  0.61458634  1
  H  H11  1  0.08714480  0.19021377  0.38541366  1
  O  O12  1  0.59940365  0.66145726  0.89377980  1
  O  O13  1  0.40059635  0.33854274  0.10622020  1
  F  F14  1  0.53343434  0.09914177  0.83844523  1
  F  F15  1  0.46656566  0.90085823  0.16155477  1
  F  F16  1  0.69787274  0.30877904  0.61996466  1
  F  F17  1  0.30212726  0.69122096  0.38003534  1
  F  F18  1  0.11460070  0.31945918  0.58709310  1
  F  F19  1  0.88539930  0.68054082  0.41290690  1
  F  F20  1  0.07218341  0.09795063  0.23792620  1
  F  F21  1  0.92781659  0.90204937  0.76207380  1
