# generated using pymatgen
data_CuClF10
_symmetry_space_group_name_H-M   'P 1'
_cell_length_a   8.82623131
_cell_length_b   4.37678382
_cell_length_c   8.11227804
_cell_angle_alpha   82.86273872
_cell_angle_beta   90.00000000
_cell_angle_gamma   90.00000000
_symmetry_Int_Tables_number   1
_chemical_formula_structural   CuClF10
_chemical_formula_sum   'Cu2 Cl2 F20'
_cell_volume   310.95312484
_cell_formula_units_Z   2
loop_
 _symmetry_equiv_pos_site_id
 _symmetry_equiv_pos_as_xyz
  1  'x, y, z'
loop_
 _atom_site_type_symbol
 _atom_site_label
 _atom_site_symmetry_multiplicity
 _atom_site_fract_x
 _atom_site_fract_y
 _atom_site_fract_z
 _atom_site_occupancy
  Cu  Cu0  1  0.50000000  -0.00000000  0.50000000  1
  Cu  Cu1  1  -0.00000000  -0.00000000  -0.00000000  1
  Cl  Cl2  1  -0.00000000  0.50000000  0.50000000  1
  Cl  Cl3  1  0.50000000  0.50000000  -0.00000000  1
  F  F4  1  0.10619017  0.67030851  0.62288642  1
  F  F5  1  0.89380983  0.32969149  0.37711358  1
  F  F6  1  0.85841402  0.71434669  0.53886824  1
  F  F7  1  0.04884588  0.75189191  0.34543420  1
  F  F8  1  0.35841402  0.28565331  0.96113176  1
  F  F9  1  0.33382672  0.96894863  0.38537136  1
  F  F10  1  0.45115412  0.75189191  0.84543420  1
  F  F11  1  0.90742426  0.76226334  0.87439895  1
  F  F12  1  0.39380983  0.67030851  0.12288642  1
  F  F13  1  0.66617328  0.03105137  0.61462864  1
  F  F14  1  0.59257574  0.76226334  0.37439895  1
  F  F15  1  0.14158598  0.28565331  0.46113176  1
  F  F16  1  0.60619017  0.32969149  0.87711358  1
  F  F17  1  0.54884588  0.24810809  0.15456580  1
  F  F18  1  0.83382672  0.03105137  0.11462864  1
  F  F19  1  0.16617328  0.96894863  0.88537136  1
  F  F20  1  0.64158598  0.71434669  0.03886824  1
  F  F21  1  0.40742426  0.23773666  0.62560105  1
  F  F22  1  0.09257574  0.23773666  0.12560105  1
  F  F23  1  0.95115412  0.24810809  0.65456580  1
