# generated using pymatgen
data_HoCoO3
_symmetry_space_group_name_H-M   'P 1'
_cell_length_a   5.11319813
_cell_length_b   5.42543382
_cell_length_c   7.33341945
_cell_angle_alpha   90.00000000
_cell_angle_beta   90.00000000
_cell_angle_gamma   90.00000000
_symmetry_Int_Tables_number   1
_chemical_formula_structural   HoCoO3
_chemical_formula_sum   'Ho4 Co4 O12'
_cell_volume   203.43872145
_cell_formula_units_Z   4
loop_
 _symmetry_equiv_pos_site_id
 _symmetry_equiv_pos_as_xyz
  1  'x, y, z'
loop_
 _atom_site_type_symbol
 _atom_site_label
 _atom_site_symmetry_multiplicity
 _atom_site_fract_x
 _atom_site_fract_y
 _atom_site_fract_z
 _atom_site_occupancy
  Ho  Ho0  1  0.01968965  0.92807763  0.75000000  1
  Ho  Ho1  1  0.51968965  0.57192237  0.25000000  1
  Ho  Ho2  1  0.48031035  0.42807763  0.75000000  1
  Ho  Ho3  1  0.98031035  0.07192237  0.25000000  1
  Co  Co4  1  0.50000000  0.00000000  0.50000000  1
  Co  Co5  1  0.00000000  0.50000000  0.50000000  1
  Co  Co6  1  0.00000000  0.50000000  0.00000000  1
  Co  Co7  1  0.50000000  0.00000000  0.00000000  1
  O  O8  1  0.69210812  0.30094327  0.44907185  1
  O  O9  1  0.19210812  0.19905673  0.55092815  1
  O  O10  1  0.80789188  0.80094327  0.05092815  1
  O  O11  1  0.30789188  0.69905673  0.94907185  1
  O  O12  1  0.30789188  0.69905673  0.55092815  1
  O  O13  1  0.80789188  0.80094327  0.44907185  1
  O  O14  1  0.19210812  0.19905673  0.94907185  1
  O  O15  1  0.69210812  0.30094327  0.05092815  1
  O  O16  1  0.10157666  0.47033883  0.25000000  1
  O  O17  1  0.60157666  0.02966117  0.75000000  1
  O  O18  1  0.89842334  0.52966117  0.75000000  1
  O  O19  1  0.39842334  0.97033883  0.25000000  1
