# generated using pymatgen
data_SmInIr
_symmetry_space_group_name_H-M   'P 1'
_cell_length_a   7.51842340
_cell_length_b   7.51842416
_cell_length_c   4.04334388
_cell_angle_alpha   90.00000000
_cell_angle_beta   90.00000000
_cell_angle_gamma   120.00000116
_symmetry_Int_Tables_number   1
_chemical_formula_structural   SmInIr
_chemical_formula_sum   'Sm3 In3 Ir3'
_cell_volume   197.93605399
_cell_formula_units_Z   3
loop_
 _symmetry_equiv_pos_site_id
 _symmetry_equiv_pos_as_xyz
  1  'x, y, z'
loop_
 _atom_site_type_symbol
 _atom_site_label
 _atom_site_symmetry_multiplicity
 _atom_site_fract_x
 _atom_site_fract_y
 _atom_site_fract_z
 _atom_site_occupancy
  Sm  Sm0  1  0.59134496  0.59134496  0.00000000  1
  Sm  Sm1  1  0.40865504  0.00000000  -0.00000000  1
  Sm  Sm2  1  1.00000000  0.40865504  0.00000000  1
  In  In3  1  0.00000000  0.74786753  0.50000000  1
  In  In4  1  0.25213247  0.25213247  0.50000000  1
  In  In5  1  0.74786753  1.00000000  0.50000000  1
  Ir  Ir6  1  0.00000000  0.00000000  0.00000000  1
  Ir  Ir7  1  0.66666700  0.33333300  0.50000000  1
  Ir  Ir8  1  0.33333300  0.66666700  0.50000000  1
