# generated using pymatgen
data_K2ReH9
_symmetry_space_group_name_H-M   'P 1'
_cell_length_a   9.50581380
_cell_length_b   9.50575318
_cell_length_c   5.53008987
_cell_angle_alpha   90.00073334
_cell_angle_beta   89.99953515
_cell_angle_gamma   120.00016775
_symmetry_Int_Tables_number   1
_chemical_formula_structural   K2ReH9
_chemical_formula_sum   'K6 Re3 H27'
_cell_volume   432.75084392
_cell_formula_units_Z   3
loop_
 _symmetry_equiv_pos_site_id
 _symmetry_equiv_pos_as_xyz
  1  'x, y, z'
loop_
 _atom_site_type_symbol
 _atom_site_label
 _atom_site_symmetry_multiplicity
 _atom_site_fract_x
 _atom_site_fract_y
 _atom_site_fract_z
 _atom_site_occupancy
  K  K0  1  0.00000861  0.26229658  0.49997761  1
  K  K1  1  0.73771312  0.73768971  0.49999111  1
  K  K2  1  0.26228821  -0.00001453  0.49998544  1
  K  K3  1  0.00000240  0.59151602  0.00001114  1
  K  K4  1  0.40860535  0.40857878  0.00002504  1
  K  K5  1  0.59138687  -0.00001956  0.00001892  1
  Re  Re6  1  0.66667344  0.33334726  0.50000064  1
  Re  Re7  1  0.33334070  0.66666382  0.49999516  1
  Re  Re8  1  0.00000925  -0.00000689  0.00002168  1
  H  H9  1  0.77653710  0.30785001  0.72131030  1
  H  H10  1  0.69215792  0.46870642  0.72131217  1
  H  H11  1  0.53130203  0.22346597  0.72132105  1
  H  H12  1  0.22345948  0.53129694  0.27868429  1
  H  H13  1  0.53130418  0.22346644  0.27867249  1
  H  H14  1  0.77653510  0.30784942  0.27868283  1
  H  H15  1  0.69215788  0.46870412  0.27868676  1
  H  H16  1  0.30784169  0.77653770  0.72132132  1
  H  H17  1  0.46869119  0.69215172  0.72132175  1
  H  H18  1  0.17631912  -0.00000379  -0.00000659  1
  H  H19  1  0.82368137  0.82367398  -0.00000555  1
  H  H20  1  0.00000329  0.17631304  -0.00000494  1
  H  H21  1  0.87270770  -0.00000601  0.21518078  1
  H  H22  1  0.12729734  0.12728943  0.78480991  1
  H  H23  1  0.00000266  0.87269545  0.78480871  1
  H  H24  1  0.00000164  0.87269977  0.21517735  1
  H  H25  1  0.12729533  0.12728823  0.21518083  1
  H  H26  1  0.87270730  -0.00000500  0.78480998  1
  H  H27  1  0.14235499  0.63143327  0.50000732  1
  H  H28  1  0.48907481  0.85762898  0.50000878  1
  H  H29  1  0.36855851  0.51091732  0.50000587  1
  H  H30  1  0.51091856  0.36856458  0.49999897  1
  H  H31  1  0.85763397  0.48908071  0.49999852  1
  H  H32  1  0.63143763  0.14236589  0.49999524  1
  H  H33  1  0.22345839  0.53129740  0.72131993  1
  H  H34  1  0.30784148  0.77653514  0.27868959  1
  H  H35  1  0.46869237  0.69215068  0.27868659  1
