# generated using pymatgen
data_TiI3
_symmetry_space_group_name_H-M   'P 1'
_cell_length_a   6.47996123
_cell_length_b   7.39211074
_cell_length_c   12.87190901
_cell_angle_alpha   90.00000000
_cell_angle_beta   90.00000000
_cell_angle_gamma   90.00000000
_symmetry_Int_Tables_number   1
_chemical_formula_structural   TiI3
_chemical_formula_sum   'Ti4 I12'
_cell_volume   616.57204892
_cell_formula_units_Z   4
loop_
 _symmetry_equiv_pos_site_id
 _symmetry_equiv_pos_as_xyz
  1  'x, y, z'
loop_
 _atom_site_type_symbol
 _atom_site_label
 _atom_site_symmetry_multiplicity
 _atom_site_fract_x
 _atom_site_fract_y
 _atom_site_fract_z
 _atom_site_occupancy
  Ti  Ti0  1  0.97242803  0.24858801  0.75000000  1
  Ti  Ti1  1  0.47242803  0.75141199  0.25000000  1
  Ti  Ti2  1  0.52757197  0.24858801  0.75000000  1
  Ti  Ti3  1  0.02757197  0.75141199  0.25000000  1
  I  I4  1  0.75000000  0.40342359  0.59190928  1
  I  I5  1  0.25000000  0.59657641  0.40809072  1
  I  I6  1  0.75000000  0.40342359  0.90809072  1
  I  I7  1  0.25000000  0.59657641  0.09190928  1
  I  I8  1  0.75000000  0.90144103  0.10079878  1
  I  I9  1  0.25000000  0.09855897  0.89920122  1
  I  I10  1  0.75000000  0.90144103  0.39920122  1
  I  I11  1  0.25000000  0.09855897  0.60079878  1
  I  I12  1  0.75000000  0.93364716  0.75000000  1
  I  I13  1  0.25000000  0.06635284  0.25000000  1
  I  I14  1  0.75000000  0.45010436  0.25000000  1
  I  I15  1  0.25000000  0.54989564  0.75000000  1
