# generated using pymatgen
data_TmSiRu
_symmetry_space_group_name_H-M   'P 1'
_cell_length_a   4.27546727
_cell_length_b   6.89977145
_cell_length_c   7.02701593
_cell_angle_alpha   90.00000000
_cell_angle_beta   90.00000000
_cell_angle_gamma   90.00000000
_symmetry_Int_Tables_number   1
_chemical_formula_structural   TmSiRu
_chemical_formula_sum   'Tm4 Si4 Ru4'
_cell_volume   207.29519213
_cell_formula_units_Z   4
loop_
 _symmetry_equiv_pos_site_id
 _symmetry_equiv_pos_as_xyz
  1  'x, y, z'
loop_
 _atom_site_type_symbol
 _atom_site_label
 _atom_site_symmetry_multiplicity
 _atom_site_fract_x
 _atom_site_fract_y
 _atom_site_fract_z
 _atom_site_occupancy
  Tm  Tm0  1  0.25000000  0.98652720  0.18825861  1
  Tm  Tm1  1  0.75000000  0.01347280  0.81174139  1
  Tm  Tm2  1  0.25000000  0.48652720  0.31174139  1
  Tm  Tm3  1  0.75000000  0.51347280  0.68825861  1
  Si  Si4  1  0.25000000  0.30262920  0.89303735  1
  Si  Si5  1  0.75000000  0.69737080  0.10696265  1
  Si  Si6  1  0.25000000  0.80262920  0.60696265  1
  Si  Si7  1  0.75000000  0.19737080  0.39303735  1
  Ru  Ru8  1  0.75000000  0.84610372  0.43436998  1
  Ru  Ru9  1  0.25000000  0.15389628  0.56563002  1
  Ru  Ru10  1  0.75000000  0.34610372  0.06563002  1
  Ru  Ru11  1  0.25000000  0.65389628  0.93436998  1
