# generated using pymatgen
data_Na3HoCl6
_symmetry_space_group_name_H-M   'P 1'
_cell_length_a   6.80506730
_cell_length_b   7.23486830
_cell_length_c   10.07975215
_cell_angle_alpha   90.00000000
_cell_angle_beta   90.84850233
_cell_angle_gamma   90.00000000
_symmetry_Int_Tables_number   1
_chemical_formula_structural   Na3HoCl6
_chemical_formula_sum   'Na6 Ho2 Cl12'
_cell_volume   496.20973848
_cell_formula_units_Z   2
loop_
 _symmetry_equiv_pos_site_id
 _symmetry_equiv_pos_as_xyz
  1  'x, y, z'
loop_
 _atom_site_type_symbol
 _atom_site_label
 _atom_site_symmetry_multiplicity
 _atom_site_fract_x
 _atom_site_fract_y
 _atom_site_fract_z
 _atom_site_occupancy
  Na  Na0  1  0.00000000  0.50000000  0.50000000  1
  Na  Na1  1  0.50000000  -0.00000000  -0.00000000  1
  Na  Na2  1  0.97513876  0.92180787  0.26003248  1
  Na  Na3  1  0.52486124  0.42180787  0.23996752  1
  Na  Na4  1  0.02486124  0.07819213  0.73996752  1
  Na  Na5  1  0.47513876  0.57819213  0.76003248  1
  Ho  Ho6  1  0.00000000  0.50000000  -0.00000000  1
  Ho  Ho7  1  0.50000000  -0.00000000  0.50000000  1
  Cl  Cl8  1  0.13998492  0.56475125  0.24039492  1
  Cl  Cl9  1  0.36001508  0.06475125  0.25960508  1
  Cl  Cl10  1  0.86001508  0.43524875  0.75960508  1
  Cl  Cl11  1  0.63998492  0.93524875  0.74039492  1
  Cl  Cl12  1  0.16896691  0.80595925  0.92066471  1
  Cl  Cl13  1  0.33103309  0.30595925  0.57933529  1
  Cl  Cl14  1  0.83103309  0.19404075  0.07933529  1
  Cl  Cl15  1  0.66896691  0.69404075  0.42066471  1
  Cl  Cl16  1  0.31628310  0.32043295  0.93534934  1
  Cl  Cl17  1  0.18371690  0.82043295  0.56465066  1
  Cl  Cl18  1  0.68371690  0.67956705  0.06465066  1
  Cl  Cl19  1  0.81628310  0.17956705  0.43534934  1
