# generated using pymatgen
data_UTe3
_symmetry_space_group_name_H-M   'P 1'
_cell_length_a   13.14011326
_cell_length_b   13.14011326
_cell_length_c   4.45946902
_cell_angle_alpha   90.00000000
_cell_angle_beta   90.00000000
_cell_angle_gamma   160.87195703
_symmetry_Int_Tables_number   1
_chemical_formula_structural   UTe3
_chemical_formula_sum   'U2 Te6'
_cell_volume   252.30843951
_cell_formula_units_Z   2
loop_
 _symmetry_equiv_pos_site_id
 _symmetry_equiv_pos_as_xyz
  1  'x, y, z'
loop_
 _atom_site_type_symbol
 _atom_site_label
 _atom_site_symmetry_multiplicity
 _atom_site_fract_x
 _atom_site_fract_y
 _atom_site_fract_z
 _atom_site_occupancy
  U  U0  1  0.83213847  0.16786153  0.75000000  1
  U  U1  1  0.16786153  0.83213847  0.25000000  1
  Te  Te2  1  0.29437181  0.70562819  0.25000000  1
  Te  Te3  1  0.92469350  0.07530650  0.25000000  1
  Te  Te4  1  0.70562819  0.29437181  0.75000000  1
  Te  Te5  1  0.07530650  0.92469350  0.75000000  1
  Te  Te6  1  0.57523737  0.42476263  0.25000000  1
  Te  Te7  1  0.42476263  0.57523737  0.75000000  1
