# generated using pymatgen
data_Nd3(BN2)2
_symmetry_space_group_name_H-M   'P 1'
_cell_length_a   3.54078884
_cell_length_b   6.29744916
_cell_length_c   6.51104294
_cell_angle_alpha   118.92057961
_cell_angle_beta   105.77774963
_cell_angle_gamma   89.99998683
_symmetry_Int_Tables_number   1
_chemical_formula_structural   Nd3(BN2)2
_chemical_formula_sum   'Nd3 B2 N4'
_cell_volume   120.79010914
_cell_formula_units_Z   1
loop_
 _symmetry_equiv_pos_site_id
 _symmetry_equiv_pos_as_xyz
  1  'x, y, z'
loop_
 _atom_site_type_symbol
 _atom_site_label
 _atom_site_symmetry_multiplicity
 _atom_site_fract_x
 _atom_site_fract_y
 _atom_site_fract_z
 _atom_site_occupancy
  Nd  Nd0  1  0.20149385  0.70149385  0.40298670  1
  Nd  Nd1  1  0.79850615  0.29850615  0.59701330  1
  Nd  Nd2  1  -0.00000000  0.00000000  0.00000000  1
  B  B3  1  0.50000000  0.35732283  0.00000000  1
  B  B4  1  0.50000000  0.64267717  -0.00000000  1
  N  N5  1  0.61882910  0.36254751  0.23765921  1
  N  N6  1  0.61882910  0.87511270  0.23765821  1
  N  N7  1  0.38117090  0.12488730  0.76234179  1
  N  N8  1  0.38117090  0.63745249  0.76234079  1
