# generated using pymatgen
data_Gd3CCl3
_symmetry_space_group_name_H-M   'P 1'
_cell_length_a   9.33506779
_cell_length_b   9.33507665
_cell_length_c   9.34021573
_cell_angle_alpha   109.44955450
_cell_angle_beta   109.44957747
_cell_angle_gamma   109.50801729
_symmetry_Int_Tables_number   1
_chemical_formula_structural   Gd3CCl3
_chemical_formula_sum   'Gd12 C4 Cl12'
_cell_volume   626.62132314
_cell_formula_units_Z   4
loop_
 _symmetry_equiv_pos_site_id
 _symmetry_equiv_pos_as_xyz
  1  'x, y, z'
loop_
 _atom_site_type_symbol
 _atom_site_label
 _atom_site_symmetry_multiplicity
 _atom_site_fract_x
 _atom_site_fract_y
 _atom_site_fract_z
 _atom_site_occupancy
  Gd  Gd0  1  0.48301288  0.74878688  0.01670301  1
  Gd  Gd1  1  0.74625097  0.23249412  0.26660855  1
  Gd  Gd2  1  0.23249268  0.26750704  0.74999997  1
  Gd  Gd3  1  0.46465524  0.48201007  0.23305604  1
  Gd  Gd4  1  0.26877758  0.01597471  0.03539286  1
  Gd  Gd5  1  0.23257394  0.46415436  0.48253695  1
  Gd  Gd6  1  0.01799021  0.03534588  0.26694472  1
  Gd  Gd7  1  0.01589545  0.48410422  0.74999998  1
  Gd  Gd8  1  0.48402540  0.23122189  0.46460655  1
  Gd  Gd9  1  0.75121358  0.01698792  0.48329826  1
  Gd  Gd10  1  0.03584481  0.26742504  0.01746340  1
  Gd  Gd11  1  0.26750513  0.75374964  0.23339157  1
  C  C12  1  0.25028281  0.24971724  0.24999996  1
  C  C13  1  -0.00123319  0.25079125  0.50163382  1
  C  C14  1  0.24920887  0.50123441  0.99836834  1
  C  C15  1  0.50267149  -0.00267192  0.24999984  1
  Cl  Cl16  1  0.99348264  0.98442075  0.74338551  1
  Cl  Cl17  1  0.75787136  0.74212646  0.24999952  1
  Cl  Cl18  1  0.98286051  0.74255824  0.99193348  1
  Cl  Cl19  1  0.24946410  0.99316333  0.50807110  1
  Cl  Cl20  1  0.74249971  0.99389196  0.98582456  1
  Cl  Cl21  1  0.50683685  0.25053543  0.99192846  1
  Cl  Cl22  1  0.74307460  0.24971331  0.75786640  1
  Cl  Cl23  1  0.50610806  0.75750020  0.51417541  1
  Cl  Cl24  1  0.75744204  0.51713939  0.50806708  1
  Cl  Cl25  1  0.25028913  0.75692455  0.74213123  1
  Cl  Cl26  1  0.51557951  0.50651731  0.75661510  1
  Cl  Cl27  1  0.99332264  0.50667731  0.25000032  1
