# generated using pymatgen
data_Ca2AlF7
_symmetry_space_group_name_H-M   'P 1'
_cell_length_a   6.98909141
_cell_length_b   7.67508157
_cell_length_c   9.53705472
_cell_angle_alpha   90.00000000
_cell_angle_beta   90.00000000
_cell_angle_gamma   90.00000000
_symmetry_Int_Tables_number   1
_chemical_formula_structural   Ca2AlF7
_chemical_formula_sum   'Ca8 Al4 F28'
_cell_volume   511.58522699
_cell_formula_units_Z   4
loop_
 _symmetry_equiv_pos_site_id
 _symmetry_equiv_pos_as_xyz
  1  'x, y, z'
loop_
 _atom_site_type_symbol
 _atom_site_label
 _atom_site_symmetry_multiplicity
 _atom_site_fract_x
 _atom_site_fract_y
 _atom_site_fract_z
 _atom_site_occupancy
  Ca  Ca0  1  0.25000000  0.30242437  0.60691793  1
  Ca  Ca1  1  0.75000000  0.69757563  0.39308207  1
  Ca  Ca2  1  0.25000000  0.80242437  0.89308207  1
  Ca  Ca3  1  0.75000000  0.19757563  0.10691793  1
  Ca  Ca4  1  0.25000000  0.61497803  0.24161933  1
  Ca  Ca5  1  0.75000000  0.38502197  0.75838067  1
  Ca  Ca6  1  0.25000000  0.11497803  0.25838067  1
  Ca  Ca7  1  0.75000000  0.88502197  0.74161933  1
  Al  Al8  1  0.25000000  0.81118240  0.55652322  1
  Al  Al9  1  0.75000000  0.18881760  0.44347678  1
  Al  Al10  1  0.25000000  0.31118240  0.94347678  1
  Al  Al11  1  0.75000000  0.68881760  0.05652322  1
  F  F12  1  0.92879769  0.12995169  0.31477141  1
  F  F13  1  0.42879769  0.87004831  0.68522859  1
  F  F14  1  0.57120231  0.62995169  0.18522859  1
  F  F15  1  0.07120231  0.37004831  0.81477141  1
  F  F16  1  0.07120231  0.87004831  0.68522859  1
  F  F17  1  0.57120231  0.12995169  0.31477141  1
  F  F18  1  0.42879769  0.37004831  0.81477141  1
  F  F19  1  0.92879769  0.62995169  0.18522859  1
  F  F20  1  0.92617332  0.24872140  0.57515316  1
  F  F21  1  0.42617332  0.75127860  0.42484684  1
  F  F22  1  0.57382668  0.74872140  0.92484684  1
  F  F23  1  0.07382668  0.25127860  0.07515316  1
  F  F24  1  0.75000000  0.62685650  0.62745375  1
  F  F25  1  0.25000000  0.37314350  0.37254625  1
  F  F26  1  0.75000000  0.12685650  0.87254625  1
  F  F27  1  0.25000000  0.87314350  0.12745375  1
  F  F28  1  0.75000000  0.96762258  0.50852876  1
  F  F29  1  0.25000000  0.03237742  0.49147124  1
  F  F30  1  0.75000000  0.46762258  0.99147124  1
  F  F31  1  0.25000000  0.53237742  0.00852876  1
  F  F32  1  0.75000000  0.90381014  0.12682730  1
  F  F33  1  0.25000000  0.09618986  0.87317270  1
  F  F34  1  0.75000000  0.40381014  0.37317270  1
  F  F35  1  0.25000000  0.59618986  0.62682730  1
  F  F36  1  0.92617332  0.74872140  0.92484684  1
  F  F37  1  0.42617332  0.25127860  0.07515316  1
  F  F38  1  0.57382668  0.24872140  0.57515316  1
  F  F39  1  0.07382668  0.75127860  0.42484684  1
