# generated using pymatgen
data_Ce(NiAs)2
_symmetry_space_group_name_H-M   'P 1'
_cell_length_a   4.01429257
_cell_length_b   4.01429221
_cell_length_c   5.78993695
_cell_angle_alpha   110.28323925
_cell_angle_beta   110.28322972
_cell_angle_gamma   89.99999782
_symmetry_Int_Tables_number   1
_chemical_formula_structural   Ce(NiAs)2
_chemical_formula_sum   'Ce1 Ni2 As2'
_cell_volume   81.32034129
_cell_formula_units_Z   1
loop_
 _symmetry_equiv_pos_site_id
 _symmetry_equiv_pos_as_xyz
  1  'x, y, z'
loop_
 _atom_site_type_symbol
 _atom_site_label
 _atom_site_symmetry_multiplicity
 _atom_site_fract_x
 _atom_site_fract_y
 _atom_site_fract_z
 _atom_site_occupancy
  Ce  Ce0  1  -0.00000000  -0.00000000  0.00000000  1
  Ni  Ni1  1  0.75000000  0.25000000  0.50000000  1
  Ni  Ni2  1  0.25000000  0.75000000  0.50000000  1
  As  As3  1  0.63343884  0.63343884  0.26687768  1
  As  As4  1  0.36656116  0.36656116  0.73312232  1
