# generated using pymatgen
data_NdSi2Ru
_symmetry_space_group_name_H-M   'P 1'
_cell_length_a   4.07566964
_cell_length_b   4.48103128
_cell_length_c   8.29030166
_cell_angle_alpha   102.14046964
_cell_angle_beta   90.00000000
_cell_angle_gamma   90.00000000
_symmetry_Int_Tables_number   1
_chemical_formula_structural   NdSi2Ru
_chemical_formula_sum   'Nd2 Si4 Ru2'
_cell_volume   148.02122523
_cell_formula_units_Z   2
loop_
 _symmetry_equiv_pos_site_id
 _symmetry_equiv_pos_as_xyz
  1  'x, y, z'
loop_
 _atom_site_type_symbol
 _atom_site_label
 _atom_site_symmetry_multiplicity
 _atom_site_fract_x
 _atom_site_fract_y
 _atom_site_fract_z
 _atom_site_occupancy
  Nd  Nd0  1  0.25000000  0.41093252  0.79849267  1
  Nd  Nd1  1  0.75000000  0.58906748  0.20150733  1
  Si  Si2  1  0.25000000  0.66788790  0.49260920  1
  Si  Si3  1  0.75000000  0.33211210  0.50739080  1
  Si  Si4  1  0.75000000  0.96251267  0.90783226  1
  Si  Si5  1  0.25000000  0.03748733  0.09216774  1
  Ru  Ru6  1  0.75000000  0.88099563  0.61227632  1
  Ru  Ru7  1  0.25000000  0.11900437  0.38772368  1
