# generated using pymatgen
data_Pu(SiRu)2
_symmetry_space_group_name_H-M   'P 1'
_cell_length_a   5.68169548
_cell_length_b   5.68169548
_cell_length_c   5.68169548
_cell_angle_alpha   136.99770776
_cell_angle_beta   136.99770776
_cell_angle_gamma   62.44157714
_symmetry_Int_Tables_number   1
_chemical_formula_structural   Pu(SiRu)2
_chemical_formula_sum   'Pu1 Si2 Ru2'
_cell_volume   84.28386738
_cell_formula_units_Z   1
loop_
 _symmetry_equiv_pos_site_id
 _symmetry_equiv_pos_as_xyz
  1  'x, y, z'
loop_
 _atom_site_type_symbol
 _atom_site_label
 _atom_site_symmetry_multiplicity
 _atom_site_fract_x
 _atom_site_fract_y
 _atom_site_fract_z
 _atom_site_occupancy
  Pu  Pu0  1  0.00000000  0.00000000  -0.00000000  1
  Si  Si1  1  0.63304851  0.63304851  0.00000000  1
  Si  Si2  1  0.36695149  0.36695149  -0.00000000  1
  Ru  Ru3  1  0.25000000  0.75000000  0.50000000  1
  Ru  Ru4  1  0.75000000  0.25000000  0.50000000  1
