# generated using pymatgen
data_HfGaPd
_symmetry_space_group_name_H-M   'P 1'
_cell_length_a   7.14459892
_cell_length_b   7.14459762
_cell_length_c   6.90863841
_cell_angle_alpha   90.00000000
_cell_angle_beta   90.00000000
_cell_angle_gamma   119.99999657
_symmetry_Int_Tables_number   1
_chemical_formula_structural   HfGaPd
_chemical_formula_sum   'Hf6 Ga6 Pd6'
_cell_volume   305.40682483
_cell_formula_units_Z   6
loop_
 _symmetry_equiv_pos_site_id
 _symmetry_equiv_pos_as_xyz
  1  'x, y, z'
loop_
 _atom_site_type_symbol
 _atom_site_label
 _atom_site_symmetry_multiplicity
 _atom_site_fract_x
 _atom_site_fract_y
 _atom_site_fract_z
 _atom_site_occupancy
  Hf  Hf0  1  0.02172459  0.40920649  0.75000000  1
  Hf  Hf1  1  0.59079351  0.61251710  0.75000000  1
  Hf  Hf2  1  0.38748290  0.97827541  0.75000000  1
  Hf  Hf3  1  0.97827541  0.38748290  0.25000000  1
  Hf  Hf4  1  0.61251710  0.59079351  0.25000000  1
  Hf  Hf5  1  0.40920649  0.02172459  0.25000000  1
  Ga  Ga6  1  0.73090995  1.00000000  0.50000000  1
  Ga  Ga7  1  0.26909005  0.26909005  -0.00000000  1
  Ga  Ga8  1  0.00000000  0.73090995  -0.00000000  1
  Ga  Ga9  1  0.00000000  0.73090995  0.50000000  1
  Ga  Ga10  1  0.26909005  0.26909005  0.50000000  1
  Ga  Ga11  1  0.73090995  1.00000000  -0.00000000  1
  Pd  Pd12  1  0.33333300  0.66666700  0.03221656  1
  Pd  Pd13  1  0.33333300  0.66666700  0.46778344  1
  Pd  Pd14  1  0.66666700  0.33333300  0.96778344  1
  Pd  Pd15  1  0.66666700  0.33333300  0.53221656  1
  Pd  Pd16  1  -0.00000000  -0.00000000  0.25000000  1
  Pd  Pd17  1  -0.00000000  -0.00000000  0.75000000  1
