# generated using pymatgen
data_RbMnBr3
_symmetry_space_group_name_H-M   'P 1'
_cell_length_a   7.50776348
_cell_length_b   7.50777122
_cell_length_c   6.47950108
_cell_angle_alpha   90.00000000
_cell_angle_beta   90.00000000
_cell_angle_gamma   120.00002906
_symmetry_Int_Tables_number   1
_chemical_formula_structural   RbMnBr3
_chemical_formula_sum   'Rb2 Mn2 Br6'
_cell_volume   316.29598841
_cell_formula_units_Z   2
loop_
 _symmetry_equiv_pos_site_id
 _symmetry_equiv_pos_as_xyz
  1  'x, y, z'
loop_
 _atom_site_type_symbol
 _atom_site_label
 _atom_site_symmetry_multiplicity
 _atom_site_fract_x
 _atom_site_fract_y
 _atom_site_fract_z
 _atom_site_occupancy
  Rb  Rb0  1  0.33333300  0.66666700  0.75000000  1
  Rb  Rb1  1  0.66666700  0.33333300  0.25000000  1
  Mn  Mn2  1  -0.00000000  0.00000000  0.00000000  1
  Mn  Mn3  1  -0.00000000  0.00000000  0.50000000  1
  Br  Br4  1  0.16445929  0.32891758  0.25000000  1
  Br  Br5  1  0.83554071  0.16445829  0.75000000  1
  Br  Br6  1  0.32891758  0.16445929  0.75000000  1
  Br  Br7  1  0.67108242  0.83554071  0.25000000  1
  Br  Br8  1  0.16445929  0.83554171  0.25000000  1
  Br  Br9  1  0.83554071  0.67108242  0.75000000  1
