# generated using pymatgen
data_GeRh
_symmetry_space_group_name_H-M   'P 1'
_cell_length_a   3.29390839
_cell_length_b   5.67270315
_cell_length_c   6.45750021
_cell_angle_alpha   90.00000000
_cell_angle_beta   90.00000000
_cell_angle_gamma   90.00000000
_symmetry_Int_Tables_number   1
_chemical_formula_structural   GeRh
_chemical_formula_sum   'Ge4 Rh4'
_cell_volume   120.66074518
_cell_formula_units_Z   4
loop_
 _symmetry_equiv_pos_site_id
 _symmetry_equiv_pos_as_xyz
  1  'x, y, z'
loop_
 _atom_site_type_symbol
 _atom_site_label
 _atom_site_symmetry_multiplicity
 _atom_site_fract_x
 _atom_site_fract_y
 _atom_site_fract_z
 _atom_site_occupancy
  Ge  Ge0  1  0.75000000  0.80826094  0.56357439  1
  Ge  Ge1  1  0.25000000  0.19173906  0.43642561  1
  Ge  Ge2  1  0.75000000  0.30826094  0.93642561  1
  Ge  Ge3  1  0.25000000  0.69173906  0.06357439  1
  Rh  Rh4  1  0.75000000  0.99544498  0.20338312  1
  Rh  Rh5  1  0.25000000  0.00455502  0.79661688  1
  Rh  Rh6  1  0.75000000  0.49544498  0.29661688  1
  Rh  Rh7  1  0.25000000  0.50455502  0.70338312  1
