# generated using pymatgen
data_YbIn4Pt
_symmetry_space_group_name_H-M   'P 1'
_cell_length_a   8.32444247
_cell_length_b   8.32444247
_cell_length_c   7.86462990
_cell_angle_alpha   90.00000000
_cell_angle_beta   90.00000000
_cell_angle_gamma   149.87541737
_symmetry_Int_Tables_number   1
_chemical_formula_structural   YbIn4Pt
_chemical_formula_sum   'Yb2 In8 Pt2'
_cell_volume   273.52065036
_cell_formula_units_Z   2
loop_
 _symmetry_equiv_pos_site_id
 _symmetry_equiv_pos_as_xyz
  1  'x, y, z'
loop_
 _atom_site_type_symbol
 _atom_site_label
 _atom_site_symmetry_multiplicity
 _atom_site_fract_x
 _atom_site_fract_y
 _atom_site_fract_z
 _atom_site_occupancy
  Yb  Yb0  1  0.13316096  0.86683904  0.75000000  1
  Yb  Yb1  1  0.86683904  0.13316096  0.25000000  1
  In  In2  1  0.50000000  0.50000000  0.50000000  1
  In  In3  1  0.50000000  0.50000000  0.00000000  1
  In  In4  1  0.06119444  0.93880556  0.25000000  1
  In  In5  1  0.93880556  0.06119444  0.75000000  1
  In  In6  1  0.31981904  0.68018096  0.94929690  1
  In  In7  1  0.68018096  0.31981904  0.05070310  1
  In  In8  1  0.68018096  0.31981904  0.44929690  1
  In  In9  1  0.31981904  0.68018096  0.55070310  1
  Pt  Pt10  1  0.76557899  0.23442101  0.75000000  1
  Pt  Pt11  1  0.23442101  0.76557899  0.25000000  1
