# generated using pymatgen
data_Fe2P4PbO14
_symmetry_space_group_name_H-M   'P 1'
_cell_length_a   4.80049190
_cell_length_b   7.13971547
_cell_length_c   7.85583097
_cell_angle_alpha   89.61187884
_cell_angle_beta   92.19934671
_cell_angle_gamma   107.11873339
_symmetry_Int_Tables_number   1
_chemical_formula_structural   Fe2P4PbO14
_chemical_formula_sum   'Fe2 P4 Pb1 O14'
_cell_volume   257.13074647
_cell_formula_units_Z   1
loop_
 _symmetry_equiv_pos_site_id
 _symmetry_equiv_pos_as_xyz
  1  'x, y, z'
loop_
 _atom_site_type_symbol
 _atom_site_label
 _atom_site_symmetry_multiplicity
 _atom_site_fract_x
 _atom_site_fract_y
 _atom_site_fract_z
 _atom_site_occupancy
  Fe  Fe0  1  0.00000000  0.00000000  0.50000000  1
  Fe  Fe1  1  0.50000000  0.50000000  -0.00000000  1
  P  P2  1  0.38262083  0.76975067  0.29819694  1
  P  P3  1  0.61737917  0.23024933  0.70180306  1
  P  P4  1  0.96192979  0.38043139  0.24725362  1
  P  P5  1  0.03807021  0.61956861  0.75274638  1
  Pb  Pb6  1  0.00000000  0.00000000  -0.00000000  1
  O  O7  1  0.48827431  0.75738184  0.11685964  1
  O  O8  1  0.51172569  0.24261816  0.88314036  1
  O  O9  1  0.18529346  0.90337417  0.29340352  1
  O  O10  1  0.81470654  0.09662583  0.70659648  1
  O  O11  1  0.62176590  0.81929163  0.43251020  1
  O  O12  1  0.31470054  0.56653392  0.79129220  1
  O  O13  1  0.68529946  0.43346608  0.20870780  1
  O  O14  1  0.88750338  0.64546234  0.91686767  1
  O  O15  1  0.11249662  0.35453766  0.08313233  1
  O  O16  1  0.08967402  0.80322093  0.64955215  1
  O  O17  1  0.91032598  0.19677907  0.35044785  1
  O  O18  1  0.81391777  0.44480072  0.65078415  1
  O  O19  1  0.18608223  0.55519928  0.34921585  1
  O  O20  1  0.37823410  0.18070837  0.56748980  1
