# generated using pymatgen
data_LuPO4
_symmetry_space_group_name_H-M   'P 1'
_cell_length_a   5.60518001
_cell_length_b   5.60518007
_cell_length_c   5.60517942
_cell_angle_alpha   106.15782138
_cell_angle_beta   106.15782316
_cell_angle_gamma   116.32305152
_symmetry_Int_Tables_number   1
_chemical_formula_structural   LuPO4
_chemical_formula_sum   'Lu2 P2 O8'
_cell_volume   134.09392185
_cell_formula_units_Z   2
loop_
 _symmetry_equiv_pos_site_id
 _symmetry_equiv_pos_as_xyz
  1  'x, y, z'
loop_
 _atom_site_type_symbol
 _atom_site_label
 _atom_site_symmetry_multiplicity
 _atom_site_fract_x
 _atom_site_fract_y
 _atom_site_fract_z
 _atom_site_occupancy
  Lu  Lu0  1  0.12500000  0.87500000  0.25000000  1
  Lu  Lu1  1  0.87500000  0.12500000  0.75000000  1
  P  P2  1  0.37500000  0.62500000  0.75000000  1
  P  P3  1  0.62500000  0.37500000  0.25000000  1
  O  O4  1  0.78808637  0.71557918  0.42749380  1
  O  O5  1  0.36059157  0.78808637  0.57250620  1
  O  O6  1  0.71557918  0.78808637  0.92749380  1
  O  O7  1  0.78808637  0.36059157  0.07250620  1
  O  O8  1  0.63940843  0.21191363  0.42749380  1
  O  O9  1  0.21191363  0.28442082  0.57250620  1
  O  O10  1  0.21191363  0.63940843  0.92749380  1
  O  O11  1  0.28442082  0.21191363  0.07250620  1
