# generated using pymatgen
data_BF3
_symmetry_space_group_name_H-M   'P 1'
_cell_length_a   4.54561679
_cell_length_b   7.11232875
_cell_length_c   13.49745885
_cell_angle_alpha   93.74168588
_cell_angle_beta   88.78650526
_cell_angle_gamma   108.09332548
_symmetry_Int_Tables_number   1
_chemical_formula_structural   BF3
_chemical_formula_sum   'B8 F24'
_cell_volume   413.90966515
_cell_formula_units_Z   8
loop_
 _symmetry_equiv_pos_site_id
 _symmetry_equiv_pos_as_xyz
  1  'x, y, z'
loop_
 _atom_site_type_symbol
 _atom_site_label
 _atom_site_symmetry_multiplicity
 _atom_site_fract_x
 _atom_site_fract_y
 _atom_site_fract_z
 _atom_site_occupancy
  B  B0  1  0.86234749  0.23887536  0.36534985  1
  B  B1  1  0.13765251  0.76112464  0.63465015  1
  B  B2  1  0.48784258  0.72815198  0.38451141  1
  B  B3  1  0.51215742  0.27184802  0.61548859  1
  B  B4  1  0.85726829  0.73675966  0.13466969  1
  B  B5  1  0.14273171  0.26324034  0.86533031  1
  B  B6  1  0.51807388  0.77685708  0.88389066  1
  B  B7  1  0.48192612  0.22314292  0.11610934  1
  F  F8  1  0.76184588  0.30635401  0.44873227  1
  F  F9  1  0.23815412  0.69364599  0.55126773  1
  F  F10  1  0.07873472  0.15247365  0.36638777  1
  F  F11  1  0.92126528  0.84752635  0.63361223  1
  F  F12  1  0.74315782  0.26181702  0.27990228  1
  F  F13  1  0.25684218  0.73818298  0.72009772  1
  F  F14  1  0.73742157  0.70604699  0.42274261  1
  F  F15  1  0.26257843  0.29395301  0.57725739  1
  F  F16  1  0.26634064  0.57215127  0.34722209  1
  F  F17  1  0.73365936  0.42784873  0.65277791  1
  F  F18  1  0.45579750  0.90667675  0.38189010  1
  F  F19  1  0.54420250  0.09332325  0.61810990  1
  F  F20  1  0.07384859  0.65001908  0.13219415  1
  F  F21  1  0.92615141  0.34998092  0.86780585  1
  F  F22  1  0.74999144  0.78842261  0.22089153  1
  F  F23  1  0.25000856  0.21157739  0.77910847  1
  F  F24  1  0.74328644  0.77551402  0.05181328  1
  F  F25  1  0.25671356  0.22448598  0.94818672  1
  F  F26  1  0.53861776  0.59634172  0.86485841  1
  F  F27  1  0.46138224  0.40365828  0.13514159  1
  F  F28  1  0.27344643  0.80339859  0.92866007  1
  F  F29  1  0.72655357  0.19660141  0.07133993  1
  F  F30  1  0.74787471  0.93070742  0.85656897  1
  F  F31  1  0.25212529  0.06929258  0.14343103  1
