# generated using pymatgen
data_BaMn2O3
_symmetry_space_group_name_H-M   'P 1'
_cell_length_a   3.62936958
_cell_length_b   4.33449168
_cell_length_c   6.17773548
_cell_angle_alpha   110.50490861
_cell_angle_beta   107.07377873
_cell_angle_gamma   90.01928363
_symmetry_Int_Tables_number   1
_chemical_formula_structural   BaMn2O3
_chemical_formula_sum   'Ba1 Mn2 O3'
_cell_volume   86.43591197
_cell_formula_units_Z   1
loop_
 _symmetry_equiv_pos_site_id
 _symmetry_equiv_pos_as_xyz
  1  'x, y, z'
loop_
 _atom_site_type_symbol
 _atom_site_label
 _atom_site_symmetry_multiplicity
 _atom_site_fract_x
 _atom_site_fract_y
 _atom_site_fract_z
 _atom_site_occupancy
  Ba  Ba0  1  0.49999584  0.99999703  0.99999491  1
  Mn  Mn1  1  0.81194827  0.31165544  0.62353330  1
  Mn  Mn2  1  0.18805002  0.68834131  0.37646082  1
  O  O3  1  0.00000168  0.50000083  0.00000595  1
  O  O4  1  0.79315712  0.79319117  0.58628194  1
  O  O5  1  0.20684407  0.20681122  0.41372008  1
