# generated using pymatgen
data_CeGeIr
_symmetry_space_group_name_H-M   'P 1'
_cell_length_a   4.40330992
_cell_length_b   7.09649711
_cell_length_c   7.55140912
_cell_angle_alpha   89.99373416
_cell_angle_beta   89.99993598
_cell_angle_gamma   90.00002405
_symmetry_Int_Tables_number   1
_chemical_formula_structural   CeGeIr
_chemical_formula_sum   'Ce4 Ge4 Ir4'
_cell_volume   235.96700566
_cell_formula_units_Z   4
loop_
 _symmetry_equiv_pos_site_id
 _symmetry_equiv_pos_as_xyz
  1  'x, y, z'
loop_
 _atom_site_type_symbol
 _atom_site_label
 _atom_site_symmetry_multiplicity
 _atom_site_fract_x
 _atom_site_fract_y
 _atom_site_fract_z
 _atom_site_occupancy
  Ce  Ce0  1  0.74999993  0.51603443  0.19953436  1
  Ce  Ce1  1  0.25000096  0.98399074  0.69953892  1
  Ce  Ce2  1  0.74999904  0.01600926  0.30046108  1
  Ce  Ce3  1  0.25000007  0.48396557  0.80046564  1
  Ge  Ge4  1  0.24999995  0.82388982  0.08317735  1
  Ge  Ge5  1  0.24999951  0.32400207  0.41690188  1
  Ge  Ge6  1  0.75000005  0.17611018  0.91682265  1
  Ge  Ge7  1  0.75000049  0.67599793  0.58309812  1
  Ir  Ir8  1  0.24999923  0.21281888  0.08950432  1
  Ir  Ir9  1  0.25000021  0.71279258  0.41054597  1
  Ir  Ir10  1  0.74999979  0.28720742  0.58945403  1
  Ir  Ir11  1  0.75000077  0.78718112  0.91049568  1
