# generated using pymatgen
data_CsCuBr3
_symmetry_space_group_name_H-M   'P 1'
_cell_length_a   7.46993065
_cell_length_b   7.46993065
_cell_length_c   12.73041553
_cell_angle_alpha   90.00000000
_cell_angle_beta   90.00000000
_cell_angle_gamma   117.96976666
_symmetry_Int_Tables_number   1
_chemical_formula_structural   CsCuBr3
_chemical_formula_sum   'Cs4 Cu4 Br12'
_cell_volume   627.38252421
_cell_formula_units_Z   4
loop_
 _symmetry_equiv_pos_site_id
 _symmetry_equiv_pos_as_xyz
  1  'x, y, z'
loop_
 _atom_site_type_symbol
 _atom_site_label
 _atom_site_symmetry_multiplicity
 _atom_site_fract_x
 _atom_site_fract_y
 _atom_site_fract_z
 _atom_site_occupancy
  Cs  Cs0  1  0.01705943  0.01705943  -0.00000000  1
  Cs  Cs1  1  0.98294057  0.98294057  0.50000000  1
  Cs  Cs2  1  0.68000252  0.31999748  0.75000000  1
  Cs  Cs3  1  0.31999748  0.68000252  0.25000000  1
  Cu  Cu4  1  0.66125097  0.35610106  0.12245390  1
  Cu  Cu5  1  0.33874903  0.64389894  0.62245390  1
  Cu  Cu6  1  0.35610106  0.66125097  0.87754610  1
  Cu  Cu7  1  0.64389894  0.33874903  0.37754610  1
  Br  Br8  1  0.93549910  0.46822642  0.48562224  1
  Br  Br9  1  0.06450090  0.53177358  0.98562224  1
  Br  Br10  1  0.49149398  0.49149398  0.50000000  1
  Br  Br11  1  0.50850602  0.50850602  -0.00000000  1
  Br  Br12  1  0.80322370  0.19677630  0.25000000  1
  Br  Br13  1  0.19677630  0.80322370  0.75000000  1
  Br  Br14  1  0.33178895  0.18740445  0.28118596  1
  Br  Br15  1  0.66821105  0.81259555  0.78118596  1
  Br  Br16  1  0.18740445  0.33178895  0.71881404  1
  Br  Br17  1  0.81259555  0.66821105  0.21881404  1
  Br  Br18  1  0.46822642  0.93549910  0.51437776  1
  Br  Br19  1  0.53177358  0.06450090  0.01437776  1
