# generated using pymatgen
data_CClF3
_symmetry_space_group_name_H-M   'P 1'
_cell_length_a   5.97261618
_cell_length_b   5.97261618
_cell_length_c   4.67918979
_cell_angle_alpha   90.00000000
_cell_angle_beta   90.00000000
_cell_angle_gamma   106.20171543
_symmetry_Int_Tables_number   1
_chemical_formula_structural   CClF3
_chemical_formula_sum   'C2 Cl2 F6'
_cell_volume   160.28768938
_cell_formula_units_Z   2
loop_
 _symmetry_equiv_pos_site_id
 _symmetry_equiv_pos_as_xyz
  1  'x, y, z'
loop_
 _atom_site_type_symbol
 _atom_site_label
 _atom_site_symmetry_multiplicity
 _atom_site_fract_x
 _atom_site_fract_y
 _atom_site_fract_z
 _atom_site_occupancy
  C  C0  1  0.68963388  0.31036612  0.00135539  1
  C  C1  1  0.31036612  0.68963388  0.50135539  1
  Cl  Cl2  1  0.86606622  0.13393378  0.09625641  1
  Cl  Cl3  1  0.13393378  0.86606622  0.59625641  1
  F  F4  1  0.67458120  0.32541880  0.71629015  1
  F  F5  1  0.32541880  0.67458120  0.21629015  1
  F  F6  1  0.77641498  0.52654470  0.10579902  1
  F  F7  1  0.22358502  0.47345530  0.60579902  1
  F  F8  1  0.47345530  0.22358502  0.10579902  1
  F  F9  1  0.52654470  0.77641498  0.60579902  1
