# generated using pymatgen
data_H10SO8
_symmetry_space_group_name_H-M   'P 1'
_cell_length_a   7.45090593
_cell_length_b   7.45090593
_cell_length_c   6.24488970
_cell_angle_alpha   90.00000000
_cell_angle_beta   90.00000000
_cell_angle_gamma   90.00000000
_symmetry_Int_Tables_number   1
_chemical_formula_structural   H10SO8
_chemical_formula_sum   'H20 S2 O16'
_cell_volume   346.69129145
_cell_formula_units_Z   2
loop_
 _symmetry_equiv_pos_site_id
 _symmetry_equiv_pos_as_xyz
  1  'x, y, z'
loop_
 _atom_site_type_symbol
 _atom_site_label
 _atom_site_symmetry_multiplicity
 _atom_site_fract_x
 _atom_site_fract_y
 _atom_site_fract_z
 _atom_site_occupancy
  H  H0  1  -0.00000000  0.50000000  0.08800158  1
  H  H1  1  0.50000000  0.00000000  0.91199842  1
  H  H2  1  0.50000000  0.00000000  0.41199842  1
  H  H3  1  -0.00000000  0.50000000  0.58800158  1
  H  H4  1  0.85232263  0.30861978  0.10544116  1
  H  H5  1  0.14767737  0.69138022  0.10544116  1
  H  H6  1  0.30861978  0.14767737  0.89455884  1
  H  H7  1  0.69138022  0.85232263  0.89455884  1
  H  H8  1  0.80861978  0.35232263  0.60544116  1
  H  H9  1  0.64767737  0.80861978  0.39455884  1
  H  H10  1  0.35232263  0.19138022  0.39455884  1
  H  H11  1  0.19138022  0.64767737  0.60544116  1
  H  H12  1  0.76809629  0.49526040  0.18735714  1
  H  H13  1  0.23190371  0.50473960  0.18735714  1
  H  H14  1  0.49526040  0.23190371  0.81264286  1
  H  H15  1  0.50473960  0.76809629  0.81264286  1
  H  H16  1  0.99526040  0.26809629  0.68735714  1
  H  H17  1  0.73190371  0.99526040  0.31264286  1
  H  H18  1  0.00473960  0.73190371  0.68735714  1
  H  H19  1  0.26809629  0.00473960  0.31264286  1
  S  S20  1  0.50000000  0.50000000  0.50000000  1
  S  S21  1  -0.00000000  0.00000000  -0.00000000  1
  O  O22  1  0.85018650  0.44045708  0.08049919  1
  O  O23  1  0.14981350  0.55954292  0.08049919  1
  O  O24  1  0.44045708  0.14981350  0.91950081  1
  O  O25  1  0.55954292  0.85018650  0.91950081  1
  O  O26  1  0.94045708  0.35018650  0.58049919  1
  O  O27  1  0.64981350  0.94045708  0.41950081  1
  O  O28  1  0.35018650  0.05954292  0.41950081  1
  O  O29  1  0.05954292  0.64981350  0.58049919  1
  O  O30  1  0.59003606  0.36365454  0.63388187  1
  O  O31  1  0.40996394  0.63634546  0.63388187  1
  O  O32  1  0.36365454  0.40996394  0.36611813  1
  O  O33  1  0.63634546  0.59003606  0.36611813  1
  O  O34  1  0.86365454  0.09003606  0.13388187  1
  O  O35  1  0.90996394  0.86365454  0.86611813  1
  O  O36  1  0.09003606  0.13634546  0.86611813  1
  O  O37  1  0.13634546  0.90996394  0.13388187  1
