# generated using pymatgen
data_DyGaPd
_symmetry_space_group_name_H-M   'P 1'
_cell_length_a   4.45537707
_cell_length_b   6.93939669
_cell_length_c   7.53631349
_cell_angle_alpha   90.00000000
_cell_angle_beta   90.00000000
_cell_angle_gamma   90.00000000
_symmetry_Int_Tables_number   1
_chemical_formula_structural   DyGaPd
_chemical_formula_sum   'Dy4 Ga4 Pd4'
_cell_volume   233.00494370
_cell_formula_units_Z   4
loop_
 _symmetry_equiv_pos_site_id
 _symmetry_equiv_pos_as_xyz
  1  'x, y, z'
loop_
 _atom_site_type_symbol
 _atom_site_label
 _atom_site_symmetry_multiplicity
 _atom_site_fract_x
 _atom_site_fract_y
 _atom_site_fract_z
 _atom_site_occupancy
  Dy  Dy0  1  0.25000000  0.48227930  0.80066454  1
  Dy  Dy1  1  0.75000000  0.51772070  0.19933546  1
  Dy  Dy2  1  0.25000000  0.98227930  0.69933546  1
  Dy  Dy3  1  0.75000000  0.01772070  0.30066454  1
  Ga  Ga4  1  0.25000000  0.82241727  0.07753915  1
  Ga  Ga5  1  0.75000000  0.17758273  0.92246085  1
  Ga  Ga6  1  0.25000000  0.32241727  0.42246085  1
  Ga  Ga7  1  0.75000000  0.67758273  0.57753915  1
  Pd  Pd8  1  0.75000000  0.78503897  0.90546446  1
  Pd  Pd9  1  0.25000000  0.21496103  0.09453554  1
  Pd  Pd10  1  0.75000000  0.28503897  0.59453554  1
  Pd  Pd11  1  0.25000000  0.71496103  0.40546446  1
