# generated using pymatgen
data_Rb2PuCl6
_symmetry_space_group_name_H-M   'P 1'
_cell_length_a   7.38654023
_cell_length_b   7.38653799
_cell_length_c   11.79006408
_cell_angle_alpha   90.00000000
_cell_angle_beta   90.00000000
_cell_angle_gamma   119.99999221
_symmetry_Int_Tables_number   1
_chemical_formula_structural   Rb2PuCl6
_chemical_formula_sum   'Rb4 Pu2 Cl12'
_cell_volume   557.09445333
_cell_formula_units_Z   2
loop_
 _symmetry_equiv_pos_site_id
 _symmetry_equiv_pos_as_xyz
  1  'x, y, z'
loop_
 _atom_site_type_symbol
 _atom_site_label
 _atom_site_symmetry_multiplicity
 _atom_site_fract_x
 _atom_site_fract_y
 _atom_site_fract_z
 _atom_site_occupancy
  Rb  Rb0  1  0.33333200  0.66666700  0.85809622  1
  Rb  Rb1  1  0.66666800  0.33333300  0.35809622  1
  Rb  Rb2  1  0.99999900  -0.00000000  0.60528163  1
  Rb  Rb3  1  0.00000100  -0.00000000  0.10528163  1
  Pu  Pu4  1  0.33333300  0.66666700  0.23995593  1
  Pu  Pu5  1  0.66666700  0.33333300  0.73995593  1
  Cl  Cl6  1  0.16113941  0.83886059  0.35567172  1
  Cl  Cl7  1  0.32227881  0.16113941  0.85567172  1
  Cl  Cl8  1  0.83886059  0.67771919  0.85567172  1
  Cl  Cl9  1  0.16113941  0.32227981  0.35567172  1
  Cl  Cl10  1  0.67772019  0.83886059  0.35567172  1
  Cl  Cl11  1  0.83886059  0.16113941  0.85567172  1
  Cl  Cl12  1  0.49807697  0.50192403  0.11298402  1
  Cl  Cl13  1  0.99615395  0.49807697  0.61298402  1
  Cl  Cl14  1  0.50192303  0.00384605  0.61298402  1
  Cl  Cl15  1  0.49807697  0.99615395  0.11298402  1
  Cl  Cl16  1  0.00384605  0.50192303  0.11298402  1
  Cl  Cl17  1  0.50192303  0.49807597  0.61298402  1
