# generated using pymatgen
data_ThI2
_symmetry_space_group_name_H-M   'P 1'
_cell_length_a   3.98364160
_cell_length_b   3.98364215
_cell_length_c   32.96039990
_cell_angle_alpha   90.00000000
_cell_angle_beta   90.00000000
_cell_angle_gamma   120.00000455
_symmetry_Int_Tables_number   1
_chemical_formula_structural   ThI2
_chemical_formula_sum   'Th4 I8'
_cell_volume   452.98483340
_cell_formula_units_Z   4
loop_
 _symmetry_equiv_pos_site_id
 _symmetry_equiv_pos_as_xyz
  1  'x, y, z'
loop_
 _atom_site_type_symbol
 _atom_site_label
 _atom_site_symmetry_multiplicity
 _atom_site_fract_x
 _atom_site_fract_y
 _atom_site_fract_z
 _atom_site_occupancy
  Th  Th0  1  0.66666700  0.33333300  0.75000000  1
  Th  Th1  1  0.33333300  0.66666700  0.25000000  1
  Th  Th2  1  0.00000000  -0.00000000  0.50000000  1
  Th  Th3  1  0.00000000  -0.00000000  0.00000000  1
  I  I4  1  0.33333300  0.66666700  0.43063754  1
  I  I5  1  0.66666700  0.33333300  0.93063754  1
  I  I6  1  0.66666700  0.33333300  0.56936246  1
  I  I7  1  0.33333300  0.66666700  0.06936246  1
  I  I8  1  0.00000000  -0.00000000  0.18158671  1
  I  I9  1  0.00000000  0.00000000  0.68158671  1
  I  I10  1  0.00000000  -0.00000000  0.81841329  1
  I  I11  1  0.00000000  -0.00000000  0.31841329  1
