# generated using pymatgen
data_Bi4Te7Pb
_symmetry_space_group_name_H-M   'P 1'
_cell_length_a   4.44984566
_cell_length_b   4.44984566
_cell_length_c   25.15890227
_cell_angle_alpha   90.00000000
_cell_angle_beta   90.00000000
_cell_angle_gamma   120.00000537
_symmetry_Int_Tables_number   1
_chemical_formula_structural   Bi4Te7Pb
_chemical_formula_sum   'Bi4 Te7 Pb1'
_cell_volume   431.43183939
_cell_formula_units_Z   1
loop_
 _symmetry_equiv_pos_site_id
 _symmetry_equiv_pos_as_xyz
  1  'x, y, z'
loop_
 _atom_site_type_symbol
 _atom_site_label
 _atom_site_symmetry_multiplicity
 _atom_site_fract_x
 _atom_site_fract_y
 _atom_site_fract_z
 _atom_site_occupancy
  Bi  Bi0  1  0.33333300  0.66666700  0.84079120  1
  Bi  Bi1  1  0.66666700  0.33333300  0.41902361  1
  Bi  Bi2  1  0.66666700  0.33333300  0.15920880  1
  Bi  Bi3  1  0.33333300  0.66666700  0.58097639  1
  Te  Te4  1  0.66666700  0.33333300  0.64841146  1
  Te  Te5  1  0.33333300  0.66666700  0.07815913  1
  Te  Te6  1  0.00000000  0.00000000  0.22614773  1
  Te  Te7  1  0.33333300  0.66666700  0.35158854  1
  Te  Te8  1  0.66666700  0.33333300  0.92184087  1
  Te  Te9  1  0.00000000  0.00000000  0.50000000  1
  Te  Te10  1  -0.00000000  -0.00000000  0.77385227  1
  Pb  Pb11  1  0.00000000  0.00000000  -0.00000000  1
