# generated using pymatgen
data_Ba(PO3)2
_symmetry_space_group_name_H-M   'P 1'
_cell_length_a   4.50771806
_cell_length_b   8.35305869
_cell_length_c   13.45394245
_cell_angle_alpha   90.00000000
_cell_angle_beta   90.00000000
_cell_angle_gamma   90.00000000
_symmetry_Int_Tables_number   1
_chemical_formula_structural   Ba(PO3)2
_chemical_formula_sum   'Ba4 P8 O24'
_cell_volume   506.58443674
_cell_formula_units_Z   4
loop_
 _symmetry_equiv_pos_site_id
 _symmetry_equiv_pos_as_xyz
  1  'x, y, z'
loop_
 _atom_site_type_symbol
 _atom_site_label
 _atom_site_symmetry_multiplicity
 _atom_site_fract_x
 _atom_site_fract_y
 _atom_site_fract_z
 _atom_site_occupancy
  Ba  Ba0  1  0.01166406  0.44756144  0.12483576  1
  Ba  Ba1  1  0.51166406  0.05243856  0.87516424  1
  Ba  Ba2  1  0.98833594  0.94756144  0.37516424  1
  Ba  Ba3  1  0.48833594  0.55243856  0.62483576  1
  P  P4  1  0.96288748  0.67360663  0.84738785  1
  P  P5  1  0.46288748  0.82639337  0.15261215  1
  P  P6  1  0.03711252  0.17360663  0.65261215  1
  P  P7  1  0.53711252  0.32639337  0.34738785  1
  P  P8  1  0.45868775  0.46865587  0.89677465  1
  P  P9  1  0.95868775  0.03134413  0.10322535  1
  P  P10  1  0.54131225  0.96865587  0.60322535  1
  P  P11  1  0.04131225  0.53134413  0.39677465  1
  O  O12  1  0.52978237  0.66310741  0.11674753  1
  O  O13  1  0.02978237  0.83689259  0.88325247  1
  O  O14  1  0.47021763  0.16310741  0.38325247  1
  O  O15  1  0.97021763  0.33689259  0.61674753  1
  O  O16  1  0.50041652  0.37149683  0.24167137  1
  O  O17  1  0.00041652  0.12850317  0.75832863  1
  O  O18  1  0.49958348  0.87149683  0.25832863  1
  O  O19  1  -0.00041652  0.62850317  0.74167137  1
  O  O20  1  0.53817375  0.38088938  0.98914802  1
  O  O21  1  0.03817375  0.11911062  0.01085198  1
  O  O22  1  0.46182625  0.88088938  0.51085198  1
  O  O23  1  0.96182625  0.61911062  0.48914802  1
  O  O24  1  0.36499717  0.45750555  0.41623001  1
  O  O25  1  0.86499717  0.04249445  0.58376999  1
  O  O26  1  0.63500283  0.95750555  0.08376999  1
  O  O27  1  0.13500283  0.54249445  0.91623001  1
  O  O28  1  0.86744349  0.36426980  0.38518757  1
  O  O29  1  0.36744349  0.13573020  0.61481243  1
  O  O30  1  0.13255651  0.86426980  0.11481243  1
  O  O31  1  0.63255651  0.63573020  0.88518757  1
  O  O32  1  0.02534274  0.62132684  0.30176184  1
  O  O33  1  0.52534274  0.87867316  0.69823816  1
  O  O34  1  0.97465726  0.12132684  0.19823816  1
  O  O35  1  0.47465726  0.37867316  0.80176184  1
