# generated using pymatgen
data_UAs
_symmetry_space_group_name_H-M   'P 1'
_cell_length_a   4.19023789
_cell_length_b   4.19023892
_cell_length_c   4.19023774
_cell_angle_alpha   60.00001821
_cell_angle_beta   60.00001015
_cell_angle_gamma   60.00000456
_symmetry_Int_Tables_number   1
_chemical_formula_structural   UAs
_chemical_formula_sum   'U1 As1'
_cell_volume   52.02370045
_cell_formula_units_Z   1
loop_
 _symmetry_equiv_pos_site_id
 _symmetry_equiv_pos_as_xyz
  1  'x, y, z'
loop_
 _atom_site_type_symbol
 _atom_site_label
 _atom_site_symmetry_multiplicity
 _atom_site_fract_x
 _atom_site_fract_y
 _atom_site_fract_z
 _atom_site_occupancy
  U  U0  1  0.50000000  0.50000000  0.50000000  1
  As  As1  1  0.00000000  -0.00000000  0.00000000  1
