# generated using pymatgen
data_K3FeO4
_symmetry_space_group_name_H-M   'P 1'
_cell_length_a   7.62848244
_cell_length_b   7.77806358
_cell_length_c   9.02634897
_cell_angle_alpha   90.00016740
_cell_angle_beta   89.99994293
_cell_angle_gamma   89.99989881
_symmetry_Int_Tables_number   1
_chemical_formula_structural   K3FeO4
_chemical_formula_sum   'K12 Fe4 O16'
_cell_volume   535.57680436
_cell_formula_units_Z   4
loop_
 _symmetry_equiv_pos_site_id
 _symmetry_equiv_pos_as_xyz
  1  'x, y, z'
loop_
 _atom_site_type_symbol
 _atom_site_label
 _atom_site_symmetry_multiplicity
 _atom_site_fract_x
 _atom_site_fract_y
 _atom_site_fract_z
 _atom_site_occupancy
  K  K0  1  0.03654759  0.28122492  0.03557506  1
  K  K1  1  0.83137789  0.94252260  0.24999924  1
  K  K2  1  0.16862001  0.05748549  0.74999428  1
  K  K3  1  0.66861780  0.44251701  0.74999815  1
  K  K4  1  0.96344548  0.71880228  0.96442231  1
  K  K5  1  0.46344090  0.78119767  0.53558099  1
  K  K6  1  0.53655145  0.21877443  0.03557663  1
  K  K7  1  0.03655813  0.28122451  0.46442253  1
  K  K8  1  0.96345029  0.71880475  0.53557699  1
  K  K9  1  0.53655795  0.21877375  0.46442419  1
  K  K10  1  0.46344190  0.78119200  0.96441559  1
  K  K11  1  0.33138322  0.55748878  0.24999834  1
  Fe  Fe12  1  0.27355079  0.00740357  0.25000106  1
  Fe  Fe13  1  0.77355008  0.49259725  0.25000188  1
  Fe  Fe14  1  0.22645003  0.50740281  0.74999848  1
  Fe  Fe15  1  0.72645175  0.99259409  0.74999947  1
  O  O16  1  0.28729308  0.22482974  0.24999958  1
  O  O17  1  0.78729189  0.27517007  0.24999765  1
  O  O18  1  0.21271269  0.72482122  0.75000292  1
  O  O19  1  0.71271051  0.77518340  0.75000257  1
  O  O20  1  0.97853898  0.57823074  0.25000147  1
  O  O21  1  0.47853869  0.92176324  0.25000070  1
  O  O22  1  0.52146269  0.07821772  0.74999894  1
  O  O23  1  0.02146110  0.42178312  0.74999901  1
  O  O24  1  0.81541870  0.04231403  0.57903489  1
  O  O25  1  0.31541844  0.45769373  0.92097134  1
  O  O26  1  0.68458317  0.54230688  0.42097572  1
  O  O27  1  0.18457884  0.95769125  0.07902211  1
  O  O28  1  0.18457956  0.95769115  0.42097952  1
  O  O29  1  0.81541755  0.04230802  0.92096918  1
  O  O30  1  0.31541862  0.45768640  0.57903526  1
  O  O31  1  0.68458020  0.54230237  0.07902297  1
