# generated using pymatgen
data_GdMg2
_symmetry_space_group_name_H-M   'P 1'
_cell_length_a   6.08594380
_cell_length_b   6.08594432
_cell_length_c   6.08594524
_cell_angle_alpha   60.00046501
_cell_angle_beta   60.00046663
_cell_angle_gamma   60.00047036
_symmetry_Int_Tables_number   1
_chemical_formula_structural   GdMg2
_chemical_formula_sum   'Gd2 Mg4'
_cell_volume   159.39458253
_cell_formula_units_Z   2
loop_
 _symmetry_equiv_pos_site_id
 _symmetry_equiv_pos_as_xyz
  1  'x, y, z'
loop_
 _atom_site_type_symbol
 _atom_site_label
 _atom_site_symmetry_multiplicity
 _atom_site_fract_x
 _atom_site_fract_y
 _atom_site_fract_z
 _atom_site_occupancy
  Gd  Gd0  1  0.12499887  0.12499887  0.12499887  1
  Gd  Gd1  1  0.87500113  0.87500113  0.87500113  1
  Mg  Mg2  1  0.50000000  0.00000000  0.50000000  1
  Mg  Mg3  1  -0.00000000  0.50000000  0.50000000  1
  Mg  Mg4  1  0.50000000  0.50000000  0.50000000  1
  Mg  Mg5  1  0.50000000  0.50000000  0.00000000  1
