# generated using pymatgen
data_NpIr2
_symmetry_space_group_name_H-M   'P 1'
_cell_length_a   5.36160904
_cell_length_b   5.36139609
_cell_length_c   5.36092991
_cell_angle_alpha   60.00236206
_cell_angle_beta   60.00373713
_cell_angle_gamma   60.00736118
_symmetry_Int_Tables_number   1
_chemical_formula_structural   NpIr2
_chemical_formula_sum   'Np2 Ir4'
_cell_volume   108.97888021
_cell_formula_units_Z   2
loop_
 _symmetry_equiv_pos_site_id
 _symmetry_equiv_pos_as_xyz
  1  'x, y, z'
loop_
 _atom_site_type_symbol
 _atom_site_label
 _atom_site_symmetry_multiplicity
 _atom_site_fract_x
 _atom_site_fract_y
 _atom_site_fract_z
 _atom_site_occupancy
  Np  Np0  1  0.87500715  0.87500056  0.87498757  1
  Np  Np1  1  0.12499470  0.12499850  0.12500968  1
  Ir  Ir2  1  0.49999937  0.50000029  0.50000016  1
  Ir  Ir3  1  0.50000013  0.50000004  0.00000056  1
  Ir  Ir4  1  0.00000016  0.49999841  0.50000102  1
  Ir  Ir5  1  0.49999948  0.00000019  0.50000101  1
