# generated using pymatgen
data_CeMgTl
_symmetry_space_group_name_H-M   'P 1'
_cell_length_a   7.76388301
_cell_length_b   7.76286876
_cell_length_c   4.79511522
_cell_angle_alpha   90.00000000
_cell_angle_beta   90.00000000
_cell_angle_gamma   119.99543681
_symmetry_Int_Tables_number   1
_chemical_formula_structural   CeMgTl
_chemical_formula_sum   'Ce3 Mg3 Tl3'
_cell_volume   250.29425015
_cell_formula_units_Z   3
loop_
 _symmetry_equiv_pos_site_id
 _symmetry_equiv_pos_as_xyz
  1  'x, y, z'
loop_
 _atom_site_type_symbol
 _atom_site_label
 _atom_site_symmetry_multiplicity
 _atom_site_fract_x
 _atom_site_fract_y
 _atom_site_fract_z
 _atom_site_occupancy
  Ce  Ce0  1  0.57329065  0.57328504  0.00000000  1
  Ce  Ce1  1  0.42671552  0.00008079  -0.00000000  1
  Ce  Ce2  1  -0.00005007  0.42659128  -0.00000000  1
  Mg  Mg3  1  0.00003850  0.75932058  0.50000000  1
  Mg  Mg4  1  0.24078372  0.24069032  0.50000000  1
  Mg  Mg5  1  0.75923802  0.99997602  0.50000000  1
  Tl  Tl6  1  0.33332958  0.66666514  0.50000000  1
  Tl  Tl7  1  0.00000890  0.99994188  0.00000000  1
  Tl  Tl8  1  0.66664419  0.33344896  0.50000000  1
