# generated using pymatgen
data_HoSiRu
_symmetry_space_group_name_H-M   'P 1'
_cell_length_a   4.31475016
_cell_length_b   6.95640207
_cell_length_c   7.02908697
_cell_angle_alpha   90.00000000
_cell_angle_beta   90.00000000
_cell_angle_gamma   90.00000000
_symmetry_Int_Tables_number   1
_chemical_formula_structural   HoSiRu
_chemical_formula_sum   'Ho4 Si4 Ru4'
_cell_volume   210.97900800
_cell_formula_units_Z   4
loop_
 _symmetry_equiv_pos_site_id
 _symmetry_equiv_pos_as_xyz
  1  'x, y, z'
loop_
 _atom_site_type_symbol
 _atom_site_label
 _atom_site_symmetry_multiplicity
 _atom_site_fract_x
 _atom_site_fract_y
 _atom_site_fract_z
 _atom_site_occupancy
  Ho  Ho0  1  0.25000000  0.98499579  0.18713540  1
  Ho  Ho1  1  0.75000000  0.01500421  0.81286460  1
  Ho  Ho2  1  0.25000000  0.48499579  0.31286460  1
  Ho  Ho3  1  0.75000000  0.51500421  0.68713540  1
  Si  Si4  1  0.25000000  0.30459524  0.89327097  1
  Si  Si5  1  0.75000000  0.69540476  0.10672903  1
  Si  Si6  1  0.25000000  0.80459524  0.60672903  1
  Si  Si7  1  0.75000000  0.19540476  0.39327097  1
  Ru  Ru8  1  0.75000000  0.84751820  0.43311253  1
  Ru  Ru9  1  0.25000000  0.15248180  0.56688747  1
  Ru  Ru10  1  0.75000000  0.34751820  0.06688747  1
  Ru  Ru11  1  0.25000000  0.65248180  0.93311253  1
