# generated using pymatgen
data_ErSiRu
_symmetry_space_group_name_H-M   'P 1'
_cell_length_a   4.29296465
_cell_length_b   6.92108498
_cell_length_c   7.03193498
_cell_angle_alpha   90.00000000
_cell_angle_beta   90.00000000
_cell_angle_gamma   90.00000000
_symmetry_Int_Tables_number   1
_chemical_formula_structural   ErSiRu
_chemical_formula_sum   'Er4 Si4 Ru4'
_cell_volume   208.93266338
_cell_formula_units_Z   4
loop_
 _symmetry_equiv_pos_site_id
 _symmetry_equiv_pos_as_xyz
  1  'x, y, z'
loop_
 _atom_site_type_symbol
 _atom_site_label
 _atom_site_symmetry_multiplicity
 _atom_site_fract_x
 _atom_site_fract_y
 _atom_site_fract_z
 _atom_site_occupancy
  Er  Er0  1  0.25000000  0.98603129  0.18736742  1
  Er  Er1  1  0.75000000  0.01396871  0.81263258  1
  Er  Er2  1  0.25000000  0.48603129  0.31263258  1
  Er  Er3  1  0.75000000  0.51396871  0.68736742  1
  Si  Si4  1  0.25000000  0.30369940  0.89306832  1
  Si  Si5  1  0.75000000  0.69630060  0.10693168  1
  Si  Si6  1  0.25000000  0.80369940  0.60693168  1
  Si  Si7  1  0.75000000  0.19630060  0.39306832  1
  Ru  Ru8  1  0.75000000  0.84672907  0.43371609  1
  Ru  Ru9  1  0.25000000  0.15327093  0.56628391  1
  Ru  Ru10  1  0.75000000  0.34672907  0.06628391  1
  Ru  Ru11  1  0.25000000  0.65327093  0.93371609  1
