# generated using pymatgen
data_PHF4
_symmetry_space_group_name_H-M   'P 1'
_cell_length_a   7.80285644
_cell_length_b   4.45346161
_cell_length_c   9.43041542
_cell_angle_alpha   62.81121041
_cell_angle_beta   90.00002498
_cell_angle_gamma   89.99993589
_symmetry_Int_Tables_number   1
_chemical_formula_structural   PHF4
_chemical_formula_sum   'P4 H4 F16'
_cell_volume   291.49488175
_cell_formula_units_Z   4
loop_
 _symmetry_equiv_pos_site_id
 _symmetry_equiv_pos_as_xyz
  1  'x, y, z'
loop_
 _atom_site_type_symbol
 _atom_site_label
 _atom_site_symmetry_multiplicity
 _atom_site_fract_x
 _atom_site_fract_y
 _atom_site_fract_z
 _atom_site_occupancy
  P  P0  1  0.28427529  0.68328642  0.32707188  1
  P  P1  1  0.78427390  0.31671568  0.17292542  1
  P  P2  1  0.71572503  0.31671541  0.67292948  1
  P  P3  1  0.21572610  0.68328196  0.82707410  1
  H  H4  1  0.38828028  0.84314063  0.38949747  1
  H  H5  1  0.88828027  0.15685878  0.11050322  1
  H  H6  1  0.61172144  0.15685570  0.61050480  1
  H  H7  1  0.11172119  0.84314399  0.88949498  1
  F  F8  1  0.34822362  0.99841410  0.76639936  1
  F  F9  1  0.84822352  0.00158551  0.73360096  1
  F  F10  1  0.65177388  0.00158851  0.23359308  1
  F  F11  1  0.15177446  0.99841144  0.26640666  1
  F  F12  1  0.08029438  0.37276133  0.88606096  1
  F  F13  1  0.58029414  0.62723824  0.61393940  1
  F  F14  1  0.91970422  0.62723525  0.11394600  1
  F  F15  1  0.41970478  0.37276450  0.38605421  1
  F  F16  1  0.20018774  0.73101700  0.65443220  1
  F  F17  1  0.70018742  0.26898305  0.84556735  1
  F  F18  1  0.79981078  0.26896016  0.34557223  1
  F  F19  1  0.29981321  0.73103715  0.15442830  1
  F  F20  1  0.35886116  0.43846060  0.92595362  1
  F  F21  1  0.85886110  0.56153878  0.57404561  1
  F  F22  1  0.64114151  0.56154563  0.07404249  1
  F  F23  1  0.14114057  0.43845818  0.42595521  1
