# generated using pymatgen
data_Dy(BC)2
_symmetry_space_group_name_H-M   'P 1'
_cell_length_a   3.57203823
_cell_length_b   5.33014105
_cell_length_c   5.33014105
_cell_angle_alpha   90.00000000
_cell_angle_beta   90.00000000
_cell_angle_gamma   90.00000000
_symmetry_Int_Tables_number   1
_chemical_formula_structural   Dy(BC)2
_chemical_formula_sum   'Dy2 B4 C4'
_cell_volume   101.48304783
_cell_formula_units_Z   2
loop_
 _symmetry_equiv_pos_site_id
 _symmetry_equiv_pos_as_xyz
  1  'x, y, z'
loop_
 _atom_site_type_symbol
 _atom_site_label
 _atom_site_symmetry_multiplicity
 _atom_site_fract_x
 _atom_site_fract_y
 _atom_site_fract_z
 _atom_site_occupancy
  Dy  Dy0  1  -0.00000000  0.50000000  0.50000000  1
  Dy  Dy1  1  -0.00000000  0.00000000  -0.00000000  1
  B  B2  1  0.50000000  0.63635982  0.13635982  1
  B  B3  1  0.50000000  0.86364018  0.63635982  1
  B  B4  1  0.50000000  0.36364018  0.86364018  1
  B  B5  1  0.50000000  0.13635982  0.36364018  1
  C  C6  1  0.50000000  0.66229957  0.83770043  1
  C  C7  1  0.50000000  0.83770043  0.33770043  1
  C  C8  1  0.50000000  0.16229957  0.66229957  1
  C  C9  1  0.50000000  0.33770043  0.16229957  1
