# generated using pymatgen
data_Eu(POs)2
_symmetry_space_group_name_H-M   'P 1'
_cell_length_a   4.05721069
_cell_length_b   4.05721012
_cell_length_c   6.12956666
_cell_angle_alpha   109.32668906
_cell_angle_beta   109.32668342
_cell_angle_gamma   90.00000159
_symmetry_Int_Tables_number   1
_chemical_formula_structural   Eu(POs)2
_chemical_formula_sum   'Eu1 P2 Os2'
_cell_volume   89.16478784
_cell_formula_units_Z   1
loop_
 _symmetry_equiv_pos_site_id
 _symmetry_equiv_pos_as_xyz
  1  'x, y, z'
loop_
 _atom_site_type_symbol
 _atom_site_label
 _atom_site_symmetry_multiplicity
 _atom_site_fract_x
 _atom_site_fract_y
 _atom_site_fract_z
 _atom_site_occupancy
  Eu  Eu0  1  -0.00000000  0.00000000  0.00000000  1
  P  P1  1  0.64481757  0.64481757  0.28963514  1
  P  P2  1  0.35518243  0.35518243  0.71036486  1
  Os  Os3  1  0.75000000  0.25000000  0.50000000  1
  Os  Os4  1  0.25000000  0.75000000  0.50000000  1
