# generated using pymatgen
data_Y6OsI10
_symmetry_space_group_name_H-M   'P 1'
_cell_length_a   7.72792206
_cell_length_b   9.65502879
_cell_length_c   9.69430697
_cell_angle_alpha   107.21738158
_cell_angle_beta   96.72805694
_cell_angle_gamma   105.00426346
_symmetry_Int_Tables_number   1
_chemical_formula_structural   Y6OsI10
_chemical_formula_sum   'Y6 Os1 I10'
_cell_volume   652.46871086
_cell_formula_units_Z   1
loop_
 _symmetry_equiv_pos_site_id
 _symmetry_equiv_pos_as_xyz
  1  'x, y, z'
loop_
 _atom_site_type_symbol
 _atom_site_label
 _atom_site_symmetry_multiplicity
 _atom_site_fract_x
 _atom_site_fract_y
 _atom_site_fract_z
 _atom_site_occupancy
  Y  Y0  1  0.11363319  0.04118139  0.76176432  1
  Y  Y1  1  0.88636681  0.95881861  0.23823568  1
  Y  Y2  1  0.96687488  0.28186429  0.08233596  1
  Y  Y3  1  0.03312512  0.71813571  0.91766404  1
  Y  Y4  1  0.35479281  0.12665951  0.16965634  1
  Y  Y5  1  0.64520719  0.87334049  0.83034366  1
  Os  Os6  1  -0.00000000  -0.00000000  -0.00000000  1
  I  I7  1  0.35093490  0.45300768  0.27336783  1
  I  I8  1  0.64906510  0.54699232  0.72663217  1
  I  I9  1  0.26013638  0.08689320  0.46185117  1
  I  I10  1  0.73986362  0.91310680  0.53814883  1
  I  I11  1  0.08593300  0.37117239  0.81710151  1
  I  I12  1  0.91406700  0.62882761  0.18289849  1
  I  I13  1  0.45541170  0.81369516  0.09277466  1
  I  I14  1  0.54458830  0.18630484  0.90722534  1
  I  I15  1  0.78453249  0.26088647  0.34999720  1
  I  I16  1  0.21546751  0.73911353  0.65000280  1
