# generated using pymatgen
data_Pr(MnGe)2
_symmetry_space_group_name_H-M   'P 1'
_cell_length_a   4.19661605
_cell_length_b   4.19661531
_cell_length_c   6.30442798
_cell_angle_alpha   109.44068852
_cell_angle_beta   109.44068821
_cell_angle_gamma   90.00000511
_symmetry_Int_Tables_number   1
_chemical_formula_structural   Pr(MnGe)2
_chemical_formula_sum   'Pr1 Mn2 Ge2'
_cell_volume   97.96223059
_cell_formula_units_Z   1
loop_
 _symmetry_equiv_pos_site_id
 _symmetry_equiv_pos_as_xyz
  1  'x, y, z'
loop_
 _atom_site_type_symbol
 _atom_site_label
 _atom_site_symmetry_multiplicity
 _atom_site_fract_x
 _atom_site_fract_y
 _atom_site_fract_z
 _atom_site_occupancy
  Pr  Pr0  1  -0.00000000  -0.00000000  -0.00000000  1
  Mn  Mn1  1  0.25000000  0.75000000  0.50000000  1
  Mn  Mn2  1  0.75000000  0.25000000  0.50000000  1
  Ge  Ge3  1  0.61564220  0.61564220  0.23128340  1
  Ge  Ge4  1  0.38435780  0.38435780  0.76871660  1
