# generated using pymatgen
data_Cs2V4O9
_symmetry_space_group_name_H-M   'P 1'
_cell_length_a   5.73058706
_cell_length_b   5.73053639
_cell_length_c   15.78910008
_cell_angle_alpha   79.54790183
_cell_angle_beta   79.54677524
_cell_angle_gamma   90.00145192
_symmetry_Int_Tables_number   1
_chemical_formula_structural   Cs2V4O9
_chemical_formula_sum   'Cs4 V8 O18'
_cell_volume   501.14643616
_cell_formula_units_Z   2
loop_
 _symmetry_equiv_pos_site_id
 _symmetry_equiv_pos_as_xyz
  1  'x, y, z'
loop_
 _atom_site_type_symbol
 _atom_site_label
 _atom_site_symmetry_multiplicity
 _atom_site_fract_x
 _atom_site_fract_y
 _atom_site_fract_z
 _atom_site_occupancy
  Cs  Cs0  1  0.37500223  0.85531666  0.75005727  1
  Cs  Cs1  1  0.87501614  0.39468898  0.74996408  1
  Cs  Cs2  1  0.14467983  0.12502857  0.24994957  1
  Cs  Cs3  1  0.60535570  0.62502397  0.25005061  1
  V  V4  1  0.12313247  0.68863365  0.04793451  1
  V  V5  1  0.92122735  0.56139512  0.45206442  1
  V  V6  1  0.43865361  0.37315317  0.54797353  1
  V  V7  1  0.31136863  0.17121991  0.95202434  1
  V  V8  1  0.62688041  0.98638064  0.45207806  1
  V  V9  1  0.82872895  0.26362527  0.04794392  1
  V  V10  1  0.01365647  0.07876904  0.54795101  1
  V  V11  1  0.73637496  0.87686536  0.95202971  1
  O  O12  1  0.75008424  0.24993039  0.50002175  1
  O  O13  1  0.99988995  0.00007456  0.00000570  1
  O  O14  1  0.60184844  0.09196981  0.35018985  1
  O  O15  1  0.14812673  0.69226213  0.14982855  1
  O  O16  1  0.04800572  0.55760683  0.35018784  1
  O  O17  1  0.70194407  0.15804736  0.14980682  1
  O  O18  1  0.90806019  0.95193474  0.64983079  1
  O  O19  1  0.84195091  0.85183814  0.85016557  1
  O  O20  1  0.44230123  0.39812123  0.64984868  1
  O  O21  1  0.30759415  0.29799930  0.85016058  1
  O  O22  1  0.35305554  0.05166988  0.53438943  1
  O  O23  1  0.39698333  0.83621690  0.96562446  1
  O  O24  1  0.11289929  0.41378661  0.53433184  1
  O  O25  1  0.63718135  0.19833109  0.96561635  1
  O  O26  1  0.94835954  0.88720257  0.46563021  1
  O  O27  1  0.80164756  0.60301827  0.03436749  1
  O  O28  1  0.58624485  0.64701405  0.46566276  1
  O  O29  1  0.16374614  0.36287280  0.03431130  1
