# generated using pymatgen
data_CaInAu
_symmetry_space_group_name_H-M   'P 1'
_cell_length_a   4.63571864
_cell_length_b   7.40669507
_cell_length_c   8.38335480
_cell_angle_alpha   90.00000000
_cell_angle_beta   90.00000000
_cell_angle_gamma   90.00000000
_symmetry_Int_Tables_number   1
_chemical_formula_structural   CaInAu
_chemical_formula_sum   'Ca4 In4 Au4'
_cell_volume   287.84545809
_cell_formula_units_Z   4
loop_
 _symmetry_equiv_pos_site_id
 _symmetry_equiv_pos_as_xyz
  1  'x, y, z'
loop_
 _atom_site_type_symbol
 _atom_site_label
 _atom_site_symmetry_multiplicity
 _atom_site_fract_x
 _atom_site_fract_y
 _atom_site_fract_z
 _atom_site_occupancy
  Ca  Ca0  1  0.75000000  0.97663508  0.68541943  1
  Ca  Ca1  1  0.25000000  0.02336492  0.31458057  1
  Ca  Ca2  1  0.75000000  0.47663508  0.81458057  1
  Ca  Ca3  1  0.25000000  0.52336492  0.18541943  1
  In  In4  1  0.75000000  0.34038708  0.43497971  1
  In  In5  1  0.25000000  0.15961292  0.93497971  1
  In  In6  1  0.25000000  0.65961292  0.56502029  1
  In  In7  1  0.75000000  0.84038708  0.06502029  1
  Au  Au8  1  0.25000000  0.77376856  0.88281105  1
  Au  Au9  1  0.25000000  0.27376856  0.61718895  1
  Au  Au10  1  0.75000000  0.72623144  0.38281105  1
  Au  Au11  1  0.75000000  0.22623144  0.11718895  1
