# generated using pymatgen
data_KH9O5
_symmetry_space_group_name_H-M   'P 1'
_cell_length_a   10.94826382
_cell_length_b   6.93607156
_cell_length_c   7.06893797
_cell_angle_alpha   82.16978124
_cell_angle_beta   90.00000000
_cell_angle_gamma   90.00000000
_symmetry_Int_Tables_number   1
_chemical_formula_structural   KH9O5
_chemical_formula_sum   'K4 H36 O20'
_cell_volume   531.79553453
_cell_formula_units_Z   4
loop_
 _symmetry_equiv_pos_site_id
 _symmetry_equiv_pos_as_xyz
  1  'x, y, z'
loop_
 _atom_site_type_symbol
 _atom_site_label
 _atom_site_symmetry_multiplicity
 _atom_site_fract_x
 _atom_site_fract_y
 _atom_site_fract_z
 _atom_site_occupancy
  K  K0  1  0.84117067  0.58367059  0.35430877  1
  K  K1  1  0.34117067  0.41632941  0.14569123  1
  K  K2  1  0.15882933  0.41632941  0.64569123  1
  K  K3  1  0.65882933  0.58367059  0.85430877  1
  H  H4  1  0.91248771  0.04495781  0.62751621  1
  H  H5  1  0.41248771  0.95504219  0.87248379  1
  H  H6  1  0.08751229  0.95504219  0.37248379  1
  H  H7  1  0.58751229  0.04495781  0.12751621  1
  H  H8  1  0.91056117  0.10236494  0.40158762  1
  H  H9  1  0.41056117  0.89763506  0.09841238  1
  H  H10  1  0.08943883  0.89763506  0.59841238  1
  H  H11  1  0.58943883  0.10236494  0.90158762  1
  H  H12  1  0.75958005  0.94126050  0.01726053  1
  H  H13  1  0.25958005  0.05873950  0.48273947  1
  H  H14  1  0.24041995  0.05873950  0.98273947  1
  H  H15  1  0.74041995  0.94126050  0.51726053  1
  H  H16  1  0.88584709  0.87771302  0.92865375  1
  H  H17  1  0.38584709  0.12228698  0.57134625  1
  H  H18  1  0.89738743  0.24906280  0.11051133  1
  H  H19  1  0.11415291  0.12228698  0.07134625  1
  H  H20  1  0.05261675  0.32723068  0.23806785  1
  H  H21  1  0.55261675  0.67276932  0.26193215  1
  H  H22  1  0.94738325  0.67276932  0.76193215  1
  H  H23  1  0.44738325  0.32723068  0.73806785  1
  H  H24  1  0.10289065  0.53375382  0.15540138  1
  H  H25  1  0.60289065  0.46624618  0.34459862  1
  H  H26  1  0.89710935  0.46624618  0.84459862  1
  H  H27  1  0.39710935  0.53375382  0.65540138  1
  H  H28  1  0.54945001  0.98499369  0.65905991  1
  H  H29  1  0.04945001  0.01500631  0.84094009  1
  H  H30  1  0.45054999  0.01500631  0.34094009  1
  H  H31  1  0.95054999  0.98499369  0.15905991  1
  H  H32  1  0.73960015  0.25549150  0.54615961  1
  H  H33  1  0.23960015  0.74450850  0.95384039  1
  H  H34  1  0.26039985  0.74450850  0.45384039  1
  H  H35  1  0.76039985  0.25549150  0.04615961  1
  H  H36  1  0.60261257  0.24906280  0.61051133  1
  H  H37  1  0.10261257  0.75093720  0.88948867  1
  H  H38  1  0.39738743  0.75093720  0.38948867  1
  H  H39  1  0.61415291  0.87771302  0.42865375  1
  O  O40  1  0.86056295  0.10889309  0.51959046  1
  O  O41  1  0.36056295  0.89110691  0.98040954  1
  O  O42  1  0.13943705  0.89110691  0.48040954  1
  O  O43  1  0.63943705  0.10889309  0.01959046  1
  O  O44  1  0.82335716  0.84000585  0.03009360  1
  O  O45  1  0.32335716  0.15999415  0.46990640  1
  O  O46  1  0.17664284  0.15999415  0.96990640  1
  O  O47  1  0.67664284  0.84000585  0.53009360  1
  O  O48  1  0.07539835  0.45355721  0.27349285  1
  O  O49  1  0.57539835  0.54644279  0.22650715  1
  O  O50  1  0.92460165  0.54644279  0.72650715  1
  O  O51  1  0.42460165  0.45355721  0.77349285  1
  O  O52  1  0.83253590  0.33969088  0.05472456  1
  O  O53  1  0.33253590  0.66030912  0.44527544  1
  O  O54  1  0.16746410  0.66030912  0.94527544  1
  O  O55  1  0.66746410  0.33969088  0.55472456  1
  O  O56  1  0.99742157  0.08018025  0.21809057  1
  O  O57  1  0.49742157  0.91981975  0.28190943  1
  O  O58  1  0.00257843  0.91981975  0.78190943  1
  O  O59  1  0.50257843  0.08018025  0.71809057  1
