# generated using pymatgen
data_K3H(SO4)2
_symmetry_space_group_name_H-M   'P 1'
_cell_length_a   7.81354597
_cell_length_b   7.81354597
_cell_length_c   9.70546887
_cell_angle_alpha   77.66405741
_cell_angle_beta   77.66405741
_cell_angle_gamma   42.56763607
_symmetry_Int_Tables_number   1
_chemical_formula_structural   K3H(SO4)2
_chemical_formula_sum   'K6 H2 S4 O16'
_cell_volume   390.14727252
_cell_formula_units_Z   2
loop_
 _symmetry_equiv_pos_site_id
 _symmetry_equiv_pos_as_xyz
  1  'x, y, z'
loop_
 _atom_site_type_symbol
 _atom_site_label
 _atom_site_symmetry_multiplicity
 _atom_site_fract_x
 _atom_site_fract_y
 _atom_site_fract_z
 _atom_site_occupancy
  K  K0  1  0.74952180  0.25047820  0.25000000  1
  K  K1  1  0.25047820  0.74952180  0.75000000  1
  K  K2  1  0.03680387  0.57782349  0.15195904  1
  K  K3  1  0.42217651  0.96319613  0.34804096  1
  K  K4  1  0.96319613  0.42217651  0.84804096  1
  K  K5  1  0.57782349  0.03680387  0.65195904  1
  H  H6  1  0.50000000  0.50000000  0.50000000  1
  H  H7  1  0.50000000  0.50000000  0.00000000  1
  S  S8  1  0.84116278  0.39178836  0.53707022  1
  S  S9  1  0.60821164  0.15883722  0.96292978  1
  S  S10  1  0.15883722  0.60821164  0.46292978  1
  S  S11  1  0.39178836  0.84116278  0.03707022  1
  O  O12  1  0.67530777  0.63422120  0.59751555  1
  O  O13  1  0.36577880  0.32469223  0.90248445  1
  O  O14  1  0.32469223  0.36577880  0.40248445  1
  O  O15  1  0.63422120  0.67530777  0.09751555  1
  O  O16  1  0.07310222  0.18517096  0.60863099  1
  O  O17  1  0.81482904  0.92689778  0.89136901  1
  O  O18  1  0.92689778  0.81482904  0.39136901  1
  O  O19  1  0.18517096  0.07310222  0.10863099  1
  O  O20  1  0.32726331  0.69135994  0.06020548  1
  O  O21  1  0.30864006  0.67273669  0.43979452  1
  O  O22  1  0.67273669  0.30864006  0.93979452  1
  O  O23  1  0.69135994  0.32726331  0.56020548  1
  O  O24  1  0.41475661  0.89224662  0.88346058  1
  O  O25  1  0.10775338  0.58524339  0.61653942  1
  O  O26  1  0.58524339  0.10775338  0.11653942  1
  O  O27  1  0.89224662  0.41475661  0.38346058  1
