# generated using pymatgen
data_U(SiPt)2
_symmetry_space_group_name_H-M   'P 1'
_cell_length_a   4.20234667
_cell_length_b   4.20234667
_cell_length_c   9.83273986
_cell_angle_alpha   90.00000000
_cell_angle_beta   90.00000000
_cell_angle_gamma   90.00000000
_symmetry_Int_Tables_number   1
_chemical_formula_structural   U(SiPt)2
_chemical_formula_sum   'U2 Si4 Pt4'
_cell_volume   173.64340852
_cell_formula_units_Z   2
loop_
 _symmetry_equiv_pos_site_id
 _symmetry_equiv_pos_as_xyz
  1  'x, y, z'
loop_
 _atom_site_type_symbol
 _atom_site_label
 _atom_site_symmetry_multiplicity
 _atom_site_fract_x
 _atom_site_fract_y
 _atom_site_fract_z
 _atom_site_occupancy
  U  U0  1  0.25000000  0.25000000  0.25360941  1
  U  U1  1  0.75000000  0.75000000  0.74639059  1
  Si  Si2  1  0.25000000  0.25000000  0.86711048  1
  Si  Si3  1  0.75000000  0.75000000  0.13288952  1
  Si  Si4  1  0.25000000  0.75000000  0.50000000  1
  Si  Si5  1  0.75000000  0.25000000  0.50000000  1
  Pt  Pt6  1  0.25000000  0.25000000  0.62316322  1
  Pt  Pt7  1  0.75000000  0.75000000  0.37683678  1
  Pt  Pt8  1  0.25000000  0.75000000  -0.00000000  1
  Pt  Pt9  1  0.75000000  0.25000000  -0.00000000  1
