# generated using pymatgen
data_SmGeRu
_symmetry_space_group_name_H-M   'P 1'
_cell_length_a   4.48636840
_cell_length_b   7.05458069
_cell_length_c   7.15707186
_cell_angle_alpha   90.00000000
_cell_angle_beta   90.00000000
_cell_angle_gamma   90.00000000
_symmetry_Int_Tables_number   1
_chemical_formula_structural   SmGeRu
_chemical_formula_sum   'Sm4 Ge4 Ru4'
_cell_volume   226.51737283
_cell_formula_units_Z   4
loop_
 _symmetry_equiv_pos_site_id
 _symmetry_equiv_pos_as_xyz
  1  'x, y, z'
loop_
 _atom_site_type_symbol
 _atom_site_label
 _atom_site_symmetry_multiplicity
 _atom_site_fract_x
 _atom_site_fract_y
 _atom_site_fract_z
 _atom_site_occupancy
  Sm  Sm0  1  0.25000000  0.18664501  0.97642548  1
  Sm  Sm1  1  0.75000000  0.81335499  0.02357452  1
  Sm  Sm2  1  0.75000000  0.68664501  0.52357452  1
  Sm  Sm3  1  0.25000000  0.31335499  0.47642548  1
  Ge  Ge4  1  0.25000000  0.89126554  0.30609408  1
  Ge  Ge5  1  0.75000000  0.10873446  0.69390592  1
  Ge  Ge6  1  0.75000000  0.39126554  0.19390592  1
  Ge  Ge7  1  0.25000000  0.60873446  0.80609408  1
  Ru  Ru8  1  0.25000000  0.56719677  0.15076784  1
  Ru  Ru9  1  0.75000000  0.43280323  0.84923216  1
  Ru  Ru10  1  0.75000000  0.06719677  0.34923216  1
  Ru  Ru11  1  0.25000000  0.93280323  0.65076784  1
