# generated using pymatgen
data_Sr7Mn4O15
_symmetry_space_group_name_H-M   'P 1'
_cell_length_a   9.63358938
_cell_length_b   6.82659679
_cell_length_c   10.35096585
_cell_angle_alpha   88.06312089
_cell_angle_beta   90.00000000
_cell_angle_gamma   90.00000000
_symmetry_Int_Tables_number   1
_chemical_formula_structural   Sr7Mn4O15
_chemical_formula_sum   'Sr14 Mn8 O30'
_cell_volume   680.33852109
_cell_formula_units_Z   2
loop_
 _symmetry_equiv_pos_site_id
 _symmetry_equiv_pos_as_xyz
  1  'x, y, z'
loop_
 _atom_site_type_symbol
 _atom_site_label
 _atom_site_symmetry_multiplicity
 _atom_site_fract_x
 _atom_site_fract_y
 _atom_site_fract_z
 _atom_site_occupancy
  Sr  Sr0  1  0.50316575  0.82156405  0.33340617  1
  Sr  Sr1  1  0.00316575  0.17843595  0.16659383  1
  Sr  Sr2  1  0.49683425  0.17843595  0.66659383  1
  Sr  Sr3  1  0.99683425  0.82156405  0.83340617  1
  Sr  Sr4  1  0.50000000  0.50000000  -0.00000000  1
  Sr  Sr5  1  -0.00000000  0.50000000  0.50000000  1
  Sr  Sr6  1  0.64899758  0.64905219  0.69626410  1
  Sr  Sr7  1  0.14899758  0.35094781  0.80373590  1
  Sr  Sr8  1  0.35100242  0.35094781  0.30373590  1
  Sr  Sr9  1  0.85100242  0.64905219  0.19626410  1
  Sr  Sr10  1  0.68563624  0.00201180  0.96548861  1
  Sr  Sr11  1  0.18563624  0.99798820  0.53451139  1
  Sr  Sr12  1  0.31436376  0.99798820  0.03451139  1
  Sr  Sr13  1  0.81436376  0.00201180  0.46548861  1
  Mn  Mn14  1  0.66941493  0.22152285  0.22133905  1
  Mn  Mn15  1  0.16941493  0.77847715  0.27866095  1
  Mn  Mn16  1  0.33058507  0.77847715  0.77866095  1
  Mn  Mn17  1  0.83058507  0.22152285  0.72133905  1
  Mn  Mn18  1  0.66717097  0.42376771  0.42513337  1
  Mn  Mn19  1  0.16717097  0.57623229  0.07486663  1
  Mn  Mn20  1  0.33282903  0.57623229  0.57486663  1
  Mn  Mn21  1  0.83282903  0.42376771  0.92513337  1
  O  O22  1  0.74728713  0.97633502  0.21260323  1
  O  O23  1  0.24728713  0.02366498  0.28739677  1
  O  O24  1  0.25271287  0.02366498  0.78739677  1
  O  O25  1  0.75271287  0.97633502  0.71260323  1
  O  O26  1  0.51827516  0.15989199  0.12466556  1
  O  O27  1  0.01827516  0.84010801  0.37533444  1
  O  O28  1  0.48172484  0.84010801  0.87533444  1
  O  O29  1  0.98172484  0.15989199  0.62466556  1
  O  O30  1  0.50000000  0.50000000  0.50000000  1
  O  O31  1  -0.00000000  0.50000000  -0.00000000  1
  O  O32  1  0.72616334  0.31702772  0.58216375  1
  O  O33  1  0.22616334  0.68297228  0.91783625  1
  O  O34  1  0.27383666  0.68297228  0.41783625  1
  O  O35  1  0.77383666  0.31702772  0.08216375  1
  O  O36  1  0.58219868  0.16320160  0.38510120  1
  O  O37  1  0.08219868  0.83679840  0.11489880  1
  O  O38  1  0.41780132  0.83679840  0.61489880  1
  O  O39  1  0.91780132  0.16320160  0.88510120  1
  O  O40  1  0.74502773  0.66258188  0.45109412  1
  O  O41  1  0.24502773  0.33741812  0.04890588  1
  O  O42  1  0.25497227  0.33741812  0.54890588  1
  O  O43  1  0.75497227  0.66258188  0.95109412  1
  O  O44  1  0.89865372  0.49273925  0.75311074  1
  O  O45  1  0.39865372  0.50726075  0.74688926  1
  O  O46  1  0.10134628  0.50726075  0.24688926  1
  O  O47  1  0.60134628  0.49273925  0.25311074  1
  O  O48  1  0.82556651  0.32140265  0.33684023  1
  O  O49  1  0.32556651  0.67859735  0.16315977  1
  O  O50  1  0.17443349  0.67859735  0.66315977  1
  O  O51  1  0.67443349  0.32140265  0.83684023  1
