# generated using pymatgen
data_Eu3AuO6
_symmetry_space_group_name_H-M   'P 1'
_cell_length_a   3.74612538
_cell_length_b   5.60966614
_cell_length_c   7.04245214
_cell_angle_alpha   91.06011989
_cell_angle_beta   103.37783929
_cell_angle_gamma   90.77716693
_symmetry_Int_Tables_number   1
_chemical_formula_structural   Eu3AuO6
_chemical_formula_sum   'Eu3 Au1 O6'
_cell_volume   143.92908578
_cell_formula_units_Z   1
loop_
 _symmetry_equiv_pos_site_id
 _symmetry_equiv_pos_as_xyz
  1  'x, y, z'
loop_
 _atom_site_type_symbol
 _atom_site_label
 _atom_site_symmetry_multiplicity
 _atom_site_fract_x
 _atom_site_fract_y
 _atom_site_fract_z
 _atom_site_occupancy
  Eu  Eu0  1  0.61393365  0.52544086  0.77013355  1
  Eu  Eu1  1  0.38606635  0.47455914  0.22986645  1
  Eu  Eu2  1  0.00000000  -0.00000000  0.50000000  1
  Au  Au3  1  0.00000000  -0.00000000  -0.00000000  1
  O  O4  1  0.16210229  0.29751035  0.88534537  1
  O  O5  1  0.87336526  0.21020854  0.20553992  1
  O  O6  1  0.12663474  0.78979146  0.79446008  1
  O  O7  1  0.48628757  0.74610692  0.48003018  1
  O  O8  1  0.83789771  0.70248965  0.11465463  1
  O  O9  1  0.51371243  0.25389308  0.51996982  1
