# generated using pymatgen
data_K2Mn3S4
_symmetry_space_group_name_H-M   'P 1'
_cell_length_a   5.98952706
_cell_length_b   7.27137483
_cell_length_c   11.05411071
_cell_angle_alpha   67.70802892
_cell_angle_beta   90.00000000
_cell_angle_gamma   90.00000000
_symmetry_Int_Tables_number   1
_chemical_formula_structural   K2Mn3S4
_chemical_formula_sum   'K4 Mn6 S8'
_cell_volume   445.44902651
_cell_formula_units_Z   2
loop_
 _symmetry_equiv_pos_site_id
 _symmetry_equiv_pos_as_xyz
  1  'x, y, z'
loop_
 _atom_site_type_symbol
 _atom_site_label
 _atom_site_symmetry_multiplicity
 _atom_site_fract_x
 _atom_site_fract_y
 _atom_site_fract_z
 _atom_site_occupancy
  K  K0  1  0.49529662  0.50000000  0.75000000  1
  K  K1  1  0.00000000  0.50000000  0.50000000  1
  K  K2  1  0.00000000  0.50000000  0.00000000  1
  K  K3  1  0.50470338  0.50000000  0.25000000  1
  Mn  Mn4  1  0.25005938  0.00093695  0.53022552  1
  Mn  Mn5  1  0.25005938  0.99906305  0.96977448  1
  Mn  Mn6  1  0.74994062  0.99906305  0.46977448  1
  Mn  Mn7  1  0.74994062  0.00093695  0.03022552  1
  Mn  Mn8  1  0.24894023  -0.00000000  0.25000000  1
  Mn  Mn9  1  0.75105977  -0.00000000  0.75000000  1
  S  S10  1  0.53388229  0.78851768  0.93734396  1
  S  S11  1  0.03176599  0.78869102  0.16830249  1
  S  S12  1  0.03176599  0.21130898  0.33169751  1
  S  S13  1  0.53388229  0.21148232  0.56265604  1
  S  S14  1  0.96823401  0.78869102  0.66830249  1
  S  S15  1  0.96823401  0.21130898  0.83169751  1
  S  S16  1  0.46611771  0.78851768  0.43734396  1
  S  S17  1  0.46611771  0.21148232  0.06265604  1
