# generated using pymatgen
data_Sc4BCl6
_symmetry_space_group_name_H-M   'P 1'
_cell_length_a   3.60292348
_cell_length_b   11.85957314
_cell_length_c   12.27958671
_cell_angle_alpha   89.99905886
_cell_angle_beta   90.00002933
_cell_angle_gamma   89.99999560
_symmetry_Int_Tables_number   1
_chemical_formula_structural   Sc4BCl6
_chemical_formula_sum   'Sc8 B2 Cl12'
_cell_volume   524.69611246
_cell_formula_units_Z   2
loop_
 _symmetry_equiv_pos_site_id
 _symmetry_equiv_pos_as_xyz
  1  'x, y, z'
loop_
 _atom_site_type_symbol
 _atom_site_label
 _atom_site_symmetry_multiplicity
 _atom_site_fract_x
 _atom_site_fract_y
 _atom_site_fract_z
 _atom_site_occupancy
  Sc  Sc0  1  0.00000126  0.10530127  0.08370761  1
  Sc  Sc1  1  0.00000475  0.89470064  0.91629270  1
  Sc  Sc2  1  0.00000028  0.60526442  0.41632364  1
  Sc  Sc3  1  -0.00000649  0.39473650  0.58367551  1
  Sc  Sc4  1  0.49999893  0.12493055  0.85315821  1
  Sc  Sc5  1  0.49999946  0.87506978  0.14684316  1
  Sc  Sc6  1  0.49999933  0.62489566  0.64679306  1
  Sc  Sc7  1  0.50000002  0.37510341  0.35320531  1
  B  B8  1  0.49999999  -0.00000109  0.00000021  1
  B  B9  1  0.50000022  0.50000097  0.50000003  1
  Cl  Cl10  1  0.50000041  0.26811665  0.68239109  1
  Cl  Cl11  1  0.50000006  0.73188279  0.31760890  1
  Cl  Cl12  1  0.50000019  0.76806343  0.81756227  1
  Cl  Cl13  1  0.50000031  0.23193697  0.18243769  1
  Cl  Cl14  1  -0.00000004  0.25759352  0.93080227  1
  Cl  Cl15  1  0.00000003  0.74240702  0.06919849  1
  Cl  Cl16  1  0.00000019  0.47963625  0.24239002  1
  Cl  Cl17  1  0.00000028  0.52036341  0.75760924  1
  Cl  Cl18  1  0.00000041  0.97962293  0.25766112  1
  Cl  Cl19  1  -0.00000002  0.02037745  0.74233993  1
  Cl  Cl20  1  0.00000024  0.24244788  0.43083430  1
  Cl  Cl21  1  0.00000019  0.75755160  0.56916522  1
