# generated using pymatgen
data_TbMnO3
_symmetry_space_group_name_H-M   'P 1'
_cell_length_a   5.27122738
_cell_length_b   5.63501917
_cell_length_c   7.56732549
_cell_angle_alpha   90.00000000
_cell_angle_beta   90.00000000
_cell_angle_gamma   90.00000000
_symmetry_Int_Tables_number   1
_chemical_formula_structural   TbMnO3
_chemical_formula_sum   'Tb4 Mn4 O12'
_cell_volume   224.77580551
_cell_formula_units_Z   4
loop_
 _symmetry_equiv_pos_site_id
 _symmetry_equiv_pos_as_xyz
  1  'x, y, z'
loop_
 _atom_site_type_symbol
 _atom_site_label
 _atom_site_symmetry_multiplicity
 _atom_site_fract_x
 _atom_site_fract_y
 _atom_site_fract_z
 _atom_site_occupancy
  Tb  Tb0  1  0.51812928  0.57180240  0.25000000  1
  Tb  Tb1  1  0.98187072  0.07180240  0.25000000  1
  Tb  Tb2  1  0.48187072  0.42819760  0.75000000  1
  Tb  Tb3  1  0.01812928  0.92819760  0.75000000  1
  Mn  Mn4  1  -0.00000000  0.50000000  -0.00000000  1
  Mn  Mn5  1  0.50000000  0.00000000  0.50000000  1
  Mn  Mn6  1  -0.00000000  0.50000000  0.50000000  1
  Mn  Mn7  1  0.50000000  0.00000000  -0.00000000  1
  O  O8  1  0.39434735  0.96681991  0.25000000  1
  O  O9  1  0.10565265  0.46681991  0.25000000  1
  O  O10  1  0.60565265  0.03318009  0.75000000  1
  O  O11  1  0.89434735  0.53318009  0.75000000  1
  O  O12  1  0.80006389  0.80946055  0.05369608  1
  O  O13  1  0.69993611  0.30946055  0.44630392  1
  O  O14  1  0.19993611  0.19053945  0.55369608  1
  O  O15  1  0.30006389  0.69053945  0.94630392  1
  O  O16  1  0.19993611  0.19053945  0.94630392  1
  O  O17  1  0.30006389  0.69053945  0.55369608  1
  O  O18  1  0.80006389  0.80946055  0.44630392  1
  O  O19  1  0.69993611  0.30946055  0.05369608  1
