# generated using pymatgen
data_Co9Se8
_symmetry_space_group_name_H-M   'P 1'
_cell_length_a   7.23290554
_cell_length_b   7.23294298
_cell_length_c   7.23291486
_cell_angle_alpha   60.00013328
_cell_angle_beta   59.99996206
_cell_angle_gamma   60.00011814
_symmetry_Int_Tables_number   1
_chemical_formula_structural   Co9Se8
_chemical_formula_sum   'Co9 Se8'
_cell_volume   267.56351391
_cell_formula_units_Z   1
loop_
 _symmetry_equiv_pos_site_id
 _symmetry_equiv_pos_as_xyz
  1  'x, y, z'
loop_
 _atom_site_type_symbol
 _atom_site_label
 _atom_site_symmetry_multiplicity
 _atom_site_fract_x
 _atom_site_fract_y
 _atom_site_fract_z
 _atom_site_occupancy
  Co  Co0  1  0.50000574  0.50001041  0.49999142  1
  Co  Co1  1  0.12328988  0.12328973  0.12329241  1
  Co  Co2  1  0.87671282  0.87670298  0.36987232  1
  Co  Co3  1  0.36986990  0.87670057  0.87671277  1
  Co  Co4  1  0.87670896  0.36987700  0.87670602  1
  Co  Co5  1  0.63012245  0.12329498  0.12329178  1
  Co  Co6  1  0.12329394  0.63012024  0.12329391  1
  Co  Co7  1  0.12328988  0.12328973  0.63012997  1
  Co  Co8  1  0.87671282  0.87670298  0.87670988  1
  Se  Se9  1  0.24998956  0.25001573  0.24999736  1
  Se  Se10  1  0.74999543  0.74999263  0.75000547  1
  Se  Se11  1  0.73640622  0.26359991  0.26359069  1
  Se  Se12  1  0.73643583  0.73641211  0.26357703  1
  Se  Se13  1  0.26360194  0.26358559  0.73640573  1
  Se  Se14  1  0.73640622  0.26359991  0.73640319  1
  Se  Se15  1  0.26357969  0.73640225  0.26358071  1
  Se  Se16  1  0.26357969  0.73640225  0.73643935  1
