# generated using pymatgen
data_EuMnO3
_symmetry_space_group_name_H-M   'P 1'
_cell_length_a   5.40858695
_cell_length_b   5.41134345
_cell_length_c   7.67572013
_cell_angle_alpha   90.00000000
_cell_angle_beta   90.00000000
_cell_angle_gamma   90.00000000
_symmetry_Int_Tables_number   1
_chemical_formula_structural   EuMnO3
_chemical_formula_sum   'Eu4 Mn4 O12'
_cell_volume   224.65083958
_cell_formula_units_Z   4
loop_
 _symmetry_equiv_pos_site_id
 _symmetry_equiv_pos_as_xyz
  1  'x, y, z'
loop_
 _atom_site_type_symbol
 _atom_site_label
 _atom_site_symmetry_multiplicity
 _atom_site_fract_x
 _atom_site_fract_y
 _atom_site_fract_z
 _atom_site_occupancy
  Eu  Eu0  1  0.00360466  0.97257224  0.75000000  1
  Eu  Eu1  1  0.50360466  0.52742776  0.25000000  1
  Eu  Eu2  1  0.49639534  0.47257224  0.75000000  1
  Eu  Eu3  1  0.99639534  0.02742776  0.25000000  1
  Mn  Mn4  1  0.50000000  0.00000000  0.50000000  1
  Mn  Mn5  1  0.00000000  0.50000000  0.50000000  1
  Mn  Mn6  1  0.00000000  0.50000000  0.00000000  1
  Mn  Mn7  1  0.50000000  -0.00000000  0.00000000  1
  O  O8  1  0.71661280  0.28371563  0.46935172  1
  O  O9  1  0.21661280  0.21628437  0.53064828  1
  O  O10  1  0.78338720  0.78371563  0.03064828  1
  O  O11  1  0.28338720  0.71628437  0.96935172  1
  O  O12  1  0.28338720  0.71628437  0.53064828  1
  O  O13  1  0.78338720  0.78371563  0.46935172  1
  O  O14  1  0.21661280  0.21628437  0.96935172  1
  O  O15  1  0.71661280  0.28371563  0.03064828  1
  O  O16  1  0.05909368  0.49121848  0.25000000  1
  O  O17  1  0.55909368  0.00878152  0.75000000  1
  O  O18  1  0.44090632  0.99121848  0.25000000  1
  O  O19  1  0.94090632  0.50878152  0.75000000  1
