# generated using pymatgen
data_Na2(GaSb)3
_symmetry_space_group_name_H-M   'P 1'
_cell_length_a   4.30821254
_cell_length_b   7.25638496
_cell_length_c   26.93431368
_cell_angle_alpha   90.00000000
_cell_angle_beta   90.00000000
_cell_angle_gamma   90.00000000
_symmetry_Int_Tables_number   1
_chemical_formula_structural   Na2(GaSb)3
_chemical_formula_sum   'Na8 Ga12 Sb12'
_cell_volume   842.02182542
_cell_formula_units_Z   4
loop_
 _symmetry_equiv_pos_site_id
 _symmetry_equiv_pos_as_xyz
  1  'x, y, z'
loop_
 _atom_site_type_symbol
 _atom_site_label
 _atom_site_symmetry_multiplicity
 _atom_site_fract_x
 _atom_site_fract_y
 _atom_site_fract_z
 _atom_site_occupancy
  Na  Na0  1  0.25000000  0.22361272  0.49698813  1
  Na  Na1  1  0.75000000  0.77638728  0.50301187  1
  Na  Na2  1  0.75000000  0.72361272  0.00301187  1
  Na  Na3  1  0.25000000  0.27638728  0.99698813  1
  Na  Na4  1  0.25000000  0.24925764  0.81689097  1
  Na  Na5  1  0.75000000  0.75074236  0.18310903  1
  Na  Na6  1  0.75000000  0.74925764  0.68310903  1
  Na  Na7  1  0.25000000  0.25074236  0.31689097  1
  Ga  Ga8  1  0.25000000  0.54710007  0.61891445  1
  Ga  Ga9  1  0.75000000  0.45289993  0.38108555  1
  Ga  Ga10  1  0.75000000  0.04710007  0.88108555  1
  Ga  Ga11  1  0.25000000  0.95289993  0.11891445  1
  Ga  Ga12  1  0.25000000  0.06885240  0.20774425  1
  Ga  Ga13  1  0.75000000  0.93114760  0.79225575  1
  Ga  Ga14  1  0.75000000  0.56885240  0.29225575  1
  Ga  Ga15  1  0.25000000  0.43114760  0.70774425  1
  Ga  Ga16  1  0.75000000  0.39880365  0.12239026  1
  Ga  Ga17  1  0.25000000  0.60119635  0.87760974  1
  Ga  Ga18  1  0.25000000  0.89880365  0.37760974  1
  Ga  Ga19  1  0.75000000  0.10119635  0.62239026  1
  Sb  Sb20  1  0.75000000  0.20678675  0.71961164  1
  Sb  Sb21  1  0.25000000  0.79321325  0.28038836  1
  Sb  Sb22  1  0.25000000  0.70678675  0.78038836  1
  Sb  Sb23  1  0.75000000  0.29321325  0.21961164  1
  Sb  Sb24  1  0.25000000  0.90875749  0.59303288  1
  Sb  Sb25  1  0.75000000  0.09124251  0.40696712  1
  Sb  Sb26  1  0.75000000  0.40875749  0.90696712  1
  Sb  Sb27  1  0.25000000  0.59124251  0.09303288  1
  Sb  Sb28  1  0.75000000  0.41289824  0.57262837  1
  Sb  Sb29  1  0.25000000  0.58710176  0.42737163  1
  Sb  Sb30  1  0.25000000  0.91289824  0.92737163  1
  Sb  Sb31  1  0.75000000  0.08710176  0.07262837  1
