# generated using pymatgen
data_CeGeAu
_symmetry_space_group_name_H-M   'P 1'
_cell_length_a   4.48078677
_cell_length_b   7.54920723
_cell_length_c   7.65075206
_cell_angle_alpha   90.00000000
_cell_angle_beta   90.00000000
_cell_angle_gamma   90.00000000
_symmetry_Int_Tables_number   1
_chemical_formula_structural   CeGeAu
_chemical_formula_sum   'Ce4 Ge4 Au4'
_cell_volume   258.79730676
_cell_formula_units_Z   4
loop_
 _symmetry_equiv_pos_site_id
 _symmetry_equiv_pos_as_xyz
  1  'x, y, z'
loop_
 _atom_site_type_symbol
 _atom_site_label
 _atom_site_symmetry_multiplicity
 _atom_site_fract_x
 _atom_site_fract_y
 _atom_site_fract_z
 _atom_site_occupancy
  Ce  Ce0  1  0.75000000  0.49990659  0.20860228  1
  Ce  Ce1  1  0.25000000  0.00009341  0.70860228  1
  Ce  Ce2  1  0.75000000  0.99990659  0.29139772  1
  Ce  Ce3  1  0.25000000  0.50009341  0.79139772  1
  Ge  Ge4  1  0.25000000  0.70445335  0.40841500  1
  Ge  Ge5  1  0.25000000  0.20445335  0.09158500  1
  Ge  Ge6  1  0.75000000  0.29554665  0.59158500  1
  Ge  Ge7  1  0.75000000  0.79554665  0.90841500  1
  Au  Au8  1  0.25000000  0.79618385  0.08072643  1
  Au  Au9  1  0.25000000  0.29618385  0.41927357  1
  Au  Au10  1  0.75000000  0.70381615  0.58072643  1
  Au  Au11  1  0.75000000  0.20381615  0.91927357  1
