# generated using pymatgen
data_UBrN
_symmetry_space_group_name_H-M   'P 1'
_cell_length_a   3.85492053
_cell_length_b   3.85492053
_cell_length_c   8.80549169
_cell_angle_alpha   90.00000000
_cell_angle_beta   90.00000000
_cell_angle_gamma   90.00000000
_symmetry_Int_Tables_number   1
_chemical_formula_structural   UBrN
_chemical_formula_sum   'U2 Br2 N2'
_cell_volume   130.85323695
_cell_formula_units_Z   2
loop_
 _symmetry_equiv_pos_site_id
 _symmetry_equiv_pos_as_xyz
  1  'x, y, z'
loop_
 _atom_site_type_symbol
 _atom_site_label
 _atom_site_symmetry_multiplicity
 _atom_site_fract_x
 _atom_site_fract_y
 _atom_site_fract_z
 _atom_site_occupancy
  U  U0  1  0.75000000  0.75000000  0.86691614  1
  U  U1  1  0.25000000  0.25000000  0.13308386  1
  Br  Br2  1  0.25000000  0.25000000  0.66814921  1
  Br  Br3  1  0.75000000  0.75000000  0.33185079  1
  N  N4  1  0.75000000  0.25000000  0.00000000  1
  N  N5  1  0.25000000  0.75000000  0.00000000  1
