# generated using pymatgen
data_EuGa3Co2
_symmetry_space_group_name_H-M   'P 1'
_cell_length_a   5.21264913
_cell_length_b   6.23896854
_cell_length_c   6.23896722
_cell_angle_alpha   105.06501168
_cell_angle_beta   89.99748009
_cell_angle_gamma   89.99747534
_symmetry_Int_Tables_number   1
_chemical_formula_structural   EuGa3Co2
_chemical_formula_sum   'Eu2 Ga6 Co4'
_cell_volume   195.92751476
_cell_formula_units_Z   2
loop_
 _symmetry_equiv_pos_site_id
 _symmetry_equiv_pos_as_xyz
  1  'x, y, z'
loop_
 _atom_site_type_symbol
 _atom_site_label
 _atom_site_symmetry_multiplicity
 _atom_site_fract_x
 _atom_site_fract_y
 _atom_site_fract_z
 _atom_site_occupancy
  Eu  Eu0  1  0.74991089  0.65421971  0.65422084  1
  Eu  Eu1  1  0.25008911  0.34578029  0.34577916  1
  Ga  Ga2  1  0.74992387  0.08130710  0.47552825  1
  Ga  Ga3  1  0.25007613  0.91869290  0.52447175  1
  Ga  Ga4  1  0.25009375  0.94298563  0.94298597  1
  Ga  Ga5  1  0.74990625  0.05701437  0.05701403  1
  Ga  Ga6  1  0.25007610  0.52447172  0.91869225  1
  Ga  Ga7  1  0.74992390  0.47552828  0.08130775  1
  Co  Co8  1  -0.00000030  0.79970755  0.20029272  1
  Co  Co9  1  0.49999992  0.20029410  0.79970568  1
  Co  Co10  1  0.00000030  0.20029245  0.79970728  1
  Co  Co11  1  0.50000008  0.79970590  0.20029432  1
