# generated using pymatgen
data_DyGeIr
_symmetry_space_group_name_H-M   'P 1'
_cell_length_a   4.28762441
_cell_length_b   6.86617510
_cell_length_c   7.56945933
_cell_angle_alpha   90.00000000
_cell_angle_beta   90.00000000
_cell_angle_gamma   90.00000000
_symmetry_Int_Tables_number   1
_chemical_formula_structural   DyGeIr
_chemical_formula_sum   'Dy4 Ge4 Ir4'
_cell_volume   222.84170322
_cell_formula_units_Z   4
loop_
 _symmetry_equiv_pos_site_id
 _symmetry_equiv_pos_as_xyz
  1  'x, y, z'
loop_
 _atom_site_type_symbol
 _atom_site_label
 _atom_site_symmetry_multiplicity
 _atom_site_fract_x
 _atom_site_fract_y
 _atom_site_fract_z
 _atom_site_occupancy
  Dy  Dy0  1  0.75000000  0.49693157  0.80745804  1
  Dy  Dy1  1  0.25000000  0.00306843  0.30745804  1
  Dy  Dy2  1  0.75000000  0.99693201  0.69254166  1
  Dy  Dy3  1  0.25000000  0.50306799  0.19254166  1
  Ge  Ge4  1  0.25000000  0.79298938  0.89051363  1
  Ge  Ge5  1  0.25000000  0.29298861  0.60948600  1
  Ge  Ge6  1  0.75000000  0.20701139  0.10948600  1
  Ge  Ge7  1  0.75000000  0.70701062  0.39051363  1
  Ir  Ir8  1  0.25000000  0.66010017  0.56603016  1
  Ir  Ir9  1  0.25000000  0.16009960  0.93396951  1
  Ir  Ir10  1  0.75000000  0.83989983  0.06603016  1
  Ir  Ir11  1  0.75000000  0.33990040  0.43396951  1
