# generated using pymatgen
data_TbSiIr
_symmetry_space_group_name_H-M   'P 1'
_cell_length_a   4.24928709
_cell_length_b   6.90758205
_cell_length_c   7.35845772
_cell_angle_alpha   90.00000000
_cell_angle_beta   90.00000000
_cell_angle_gamma   90.00000000
_symmetry_Int_Tables_number   1
_chemical_formula_structural   TbSiIr
_chemical_formula_sum   'Tb4 Si4 Ir4'
_cell_volume   215.98765286
_cell_formula_units_Z   4
loop_
 _symmetry_equiv_pos_site_id
 _symmetry_equiv_pos_as_xyz
  1  'x, y, z'
loop_
 _atom_site_type_symbol
 _atom_site_label
 _atom_site_symmetry_multiplicity
 _atom_site_fract_x
 _atom_site_fract_y
 _atom_site_fract_z
 _atom_site_occupancy
  Tb  Tb0  1  0.75000000  0.50349740  0.18579740  1
  Tb  Tb1  1  0.25000000  0.99650260  0.68579740  1
  Tb  Tb2  1  0.75000000  0.00349740  0.31420260  1
  Tb  Tb3  1  0.25000000  0.49650260  0.81420260  1
  Si  Si4  1  0.25000000  0.80150947  0.10907858  1
  Si  Si5  1  0.25000000  0.30150947  0.39092142  1
  Si  Si6  1  0.75000000  0.19849053  0.89092142  1
  Si  Si7  1  0.75000000  0.69849053  0.60907858  1
  Ir  Ir8  1  0.25000000  0.65476014  0.43120882  1
  Ir  Ir9  1  0.25000000  0.15476014  0.06879118  1
  Ir  Ir10  1  0.75000000  0.84523986  0.93120882  1
  Ir  Ir11  1  0.75000000  0.34523986  0.56879118  1
