# generated using pymatgen
data_In7Pt3
_symmetry_space_group_name_H-M   'P 1'
_cell_length_a   8.24198480
_cell_length_b   8.24198466
_cell_length_c   8.24198483
_cell_angle_alpha   109.47121353
_cell_angle_beta   109.47121313
_cell_angle_gamma   109.47123206
_symmetry_Int_Tables_number   1
_chemical_formula_structural   In7Pt3
_chemical_formula_sum   'In14 Pt6'
_cell_volume   430.99630671
_cell_formula_units_Z   2
loop_
 _symmetry_equiv_pos_site_id
 _symmetry_equiv_pos_as_xyz
  1  'x, y, z'
loop_
 _atom_site_type_symbol
 _atom_site_label
 _atom_site_symmetry_multiplicity
 _atom_site_fract_x
 _atom_site_fract_y
 _atom_site_fract_z
 _atom_site_occupancy
  In  In0  1  0.50000000  0.75000000  0.25000000  1
  In  In1  1  0.75000000  0.50000000  0.25000000  1
  In  In2  1  0.25000000  0.50000000  0.75000000  1
  In  In3  1  0.75000000  0.25000000  0.50000000  1
  In  In4  1  0.25000000  0.75000000  0.50000000  1
  In  In5  1  0.50000000  0.25000000  0.75000000  1
  In  In6  1  0.67461687  -0.00000000  0.00000000  1
  In  In7  1  0.00000000  0.00000000  0.67461687  1
  In  In8  1  -0.00000000  0.67461687  0.00000000  1
  In  In9  1  -0.00000000  -0.00000000  0.32538313  1
  In  In10  1  0.67461687  0.67461687  0.67461687  1
  In  In11  1  0.00000000  0.32538313  -0.00000000  1
  In  In12  1  0.32538313  0.32538313  0.32538313  1
  In  In13  1  0.32538313  0.00000000  -0.00000000  1
  Pt  Pt14  1  0.00000000  0.65443753  0.65443753  1
  Pt  Pt15  1  0.65443753  0.65443753  0.00000000  1
  Pt  Pt16  1  0.65443753  0.00000000  0.65443753  1
  Pt  Pt17  1  0.34556247  -0.00000000  0.34556247  1
  Pt  Pt18  1  -0.00000000  0.34556247  0.34556247  1
  Pt  Pt19  1  0.34556247  0.34556247  -0.00000000  1
