# generated using pymatgen
data_K2OsBr6
_symmetry_space_group_name_H-M   'P 1'
_cell_length_a   7.30783278
_cell_length_b   7.30783185
_cell_length_c   7.30783546
_cell_angle_alpha   59.99998831
_cell_angle_beta   59.99999258
_cell_angle_gamma   60.00002226
_symmetry_Int_Tables_number   1
_chemical_formula_structural   K2OsBr6
_chemical_formula_sum   'K2 Os1 Br6'
_cell_volume   275.96303994
_cell_formula_units_Z   1
loop_
 _symmetry_equiv_pos_site_id
 _symmetry_equiv_pos_as_xyz
  1  'x, y, z'
loop_
 _atom_site_type_symbol
 _atom_site_label
 _atom_site_symmetry_multiplicity
 _atom_site_fract_x
 _atom_site_fract_y
 _atom_site_fract_z
 _atom_site_occupancy
  K  K0  1  0.25000000  0.25000000  0.25000000  1
  K  K1  1  0.75000000  0.75000000  0.75000000  1
  Os  Os2  1  -0.00000000  0.00000000  -0.00000000  1
  Br  Br3  1  0.75895686  0.24104314  0.24104314  1
  Br  Br4  1  0.75895686  0.75895686  0.24104314  1
  Br  Br5  1  0.75895686  0.24104314  0.75895686  1
  Br  Br6  1  0.24104314  0.24104314  0.75895686  1
  Br  Br7  1  0.24104314  0.75895686  0.24104314  1
  Br  Br8  1  0.24104314  0.75895686  0.75895686  1
