# generated using pymatgen
data_PrRh2
_symmetry_space_group_name_H-M   'P 1'
_cell_length_a   5.40220657
_cell_length_b   5.40220530
_cell_length_c   5.40220373
_cell_angle_alpha   59.99999076
_cell_angle_beta   59.99999847
_cell_angle_gamma   59.99999124
_symmetry_Int_Tables_number   1
_chemical_formula_structural   PrRh2
_chemical_formula_sum   'Pr2 Rh4'
_cell_volume   111.48030995
_cell_formula_units_Z   2
loop_
 _symmetry_equiv_pos_site_id
 _symmetry_equiv_pos_as_xyz
  1  'x, y, z'
loop_
 _atom_site_type_symbol
 _atom_site_label
 _atom_site_symmetry_multiplicity
 _atom_site_fract_x
 _atom_site_fract_y
 _atom_site_fract_z
 _atom_site_occupancy
  Pr  Pr0  1  0.12500000  0.12500000  0.12500000  1
  Pr  Pr1  1  0.87500000  0.87500000  0.87500000  1
  Rh  Rh2  1  0.50000000  -0.00000000  0.50000000  1
  Rh  Rh3  1  0.00000000  0.50000000  0.50000000  1
  Rh  Rh4  1  0.50000000  0.50000000  0.50000000  1
  Rh  Rh5  1  0.50000000  0.50000000  0.00000000  1
