# generated using pymatgen
data_KClO4
_symmetry_space_group_name_H-M   'P 1'
_cell_length_a   5.61273066
_cell_length_b   7.19777613
_cell_length_c   8.75090701
_cell_angle_alpha   90.00000000
_cell_angle_beta   90.00000000
_cell_angle_gamma   90.00000000
_symmetry_Int_Tables_number   1
_chemical_formula_structural   KClO4
_chemical_formula_sum   'K4 Cl4 O16'
_cell_volume   353.52945668
_cell_formula_units_Z   4
loop_
 _symmetry_equiv_pos_site_id
 _symmetry_equiv_pos_as_xyz
  1  'x, y, z'
loop_
 _atom_site_type_symbol
 _atom_site_label
 _atom_site_symmetry_multiplicity
 _atom_site_fract_x
 _atom_site_fract_y
 _atom_site_fract_z
 _atom_site_occupancy
  K  K0  1  0.25000000  0.16046530  0.68076986  1
  K  K1  1  0.75000000  0.83953470  0.31923014  1
  K  K2  1  0.75000000  0.66046530  0.81923014  1
  K  K3  1  0.25000000  0.33953470  0.18076986  1
  Cl  Cl4  1  0.25000000  0.68818634  0.56948910  1
  Cl  Cl5  1  0.75000000  0.31181366  0.43051090  1
  Cl  Cl6  1  0.75000000  0.18818634  0.93051090  1
  Cl  Cl7  1  0.25000000  0.81181366  0.06948910  1
  O  O8  1  0.25000000  0.59339029  0.42498674  1
  O  O9  1  0.75000000  0.40660971  0.57501326  1
  O  O10  1  0.75000000  0.09339029  0.07501326  1
  O  O11  1  0.25000000  0.90660971  0.92498674  1
  O  O12  1  0.54029636  0.19480261  0.41907523  1
  O  O13  1  0.04029636  0.80519739  0.58092477  1
  O  O14  1  0.45970364  0.69480261  0.08092477  1
  O  O15  1  0.95970364  0.30519739  0.91907523  1
  O  O16  1  0.25000000  0.94352771  0.19390840  1
  O  O17  1  0.75000000  0.05647229  0.80609160  1
  O  O18  1  0.75000000  0.44352771  0.30609160  1
  O  O19  1  0.25000000  0.55647229  0.69390840  1
  O  O20  1  0.04029636  0.69480261  0.08092477  1
  O  O21  1  0.54029636  0.30519739  0.91907523  1
  O  O22  1  0.95970364  0.19480261  0.41907523  1
  O  O23  1  0.45970364  0.80519739  0.58092477  1
