# generated using pymatgen
data_CeZnSn
_symmetry_space_group_name_H-M   'P 1'
_cell_length_a   4.55915751
_cell_length_b   4.55915751
_cell_length_c   16.98223452
_cell_angle_alpha   90.00000000
_cell_angle_beta   90.00000000
_cell_angle_gamma   120.00000773
_symmetry_Int_Tables_number   1
_chemical_formula_structural   CeZnSn
_chemical_formula_sum   'Ce4 Zn4 Sn4'
_cell_volume   305.69942755
_cell_formula_units_Z   4
loop_
 _symmetry_equiv_pos_site_id
 _symmetry_equiv_pos_as_xyz
  1  'x, y, z'
loop_
 _atom_site_type_symbol
 _atom_site_label
 _atom_site_symmetry_multiplicity
 _atom_site_fract_x
 _atom_site_fract_y
 _atom_site_fract_z
 _atom_site_occupancy
  Ce  Ce0  1  0.00000000  0.00000000  0.75000000  1
  Ce  Ce1  1  0.00000000  -0.00000000  0.25000000  1
  Ce  Ce2  1  0.00000000  -0.00000000  0.50000000  1
  Ce  Ce3  1  0.00000000  -0.00000000  -0.00000000  1
  Zn  Zn4  1  0.66666700  0.33333300  0.84201690  1
  Zn  Zn5  1  0.66666700  0.33333300  0.65798310  1
  Zn  Zn6  1  0.33333300  0.66666700  0.15798310  1
  Zn  Zn7  1  0.33333300  0.66666700  0.34201690  1
  Sn  Sn8  1  0.66666700  0.33333300  0.11726575  1
  Sn  Sn9  1  0.66666700  0.33333300  0.38273425  1
  Sn  Sn10  1  0.33333300  0.66666700  0.88273425  1
  Sn  Sn11  1  0.33333300  0.66666700  0.61726575  1
