# generated using pymatgen
data_EuSbPt
_symmetry_space_group_name_H-M   'P 1'
_cell_length_a   4.65660836
_cell_length_b   7.59876207
_cell_length_c   7.95470331
_cell_angle_alpha   90.00000000
_cell_angle_beta   90.00000000
_cell_angle_gamma   90.00000000
_symmetry_Int_Tables_number   1
_chemical_formula_structural   EuSbPt
_chemical_formula_sum   'Eu4 Sb4 Pt4'
_cell_volume   281.47287298
_cell_formula_units_Z   4
loop_
 _symmetry_equiv_pos_site_id
 _symmetry_equiv_pos_as_xyz
  1  'x, y, z'
loop_
 _atom_site_type_symbol
 _atom_site_label
 _atom_site_symmetry_multiplicity
 _atom_site_fract_x
 _atom_site_fract_y
 _atom_site_fract_z
 _atom_site_occupancy
  Eu  Eu0  1  0.75000000  0.49115035  0.80334855  1
  Eu  Eu1  1  0.25000000  0.00884965  0.30334855  1
  Eu  Eu2  1  0.75000000  0.99115035  0.69665145  1
  Eu  Eu3  1  0.25000000  0.50884965  0.19665145  1
  Sb  Sb4  1  0.25000000  0.68484296  0.59006264  1
  Sb  Sb5  1  0.25000000  0.18484296  0.90993736  1
  Sb  Sb6  1  0.75000000  0.31515704  0.40993736  1
  Sb  Sb7  1  0.75000000  0.81515704  0.09006264  1
  Pt  Pt8  1  0.25000000  0.80410923  0.91452477  1
  Pt  Pt9  1  0.25000000  0.30410923  0.58547523  1
  Pt  Pt10  1  0.75000000  0.69589077  0.41452477  1
  Pt  Pt11  1  0.75000000  0.19589077  0.08547523  1
