# generated using pymatgen
data_SiCl2O
_symmetry_space_group_name_H-M   'P 1'
_cell_length_a   6.11482008
_cell_length_b   8.21546362
_cell_length_c   8.30780287
_cell_angle_alpha   77.48738387
_cell_angle_beta   81.04875774
_cell_angle_gamma   72.71981064
_symmetry_Int_Tables_number   1
_chemical_formula_structural   SiCl2O
_chemical_formula_sum   'Si4 Cl8 O4'
_cell_volume   387.18039526
_cell_formula_units_Z   4
loop_
 _symmetry_equiv_pos_site_id
 _symmetry_equiv_pos_as_xyz
  1  'x, y, z'
loop_
 _atom_site_type_symbol
 _atom_site_label
 _atom_site_symmetry_multiplicity
 _atom_site_fract_x
 _atom_site_fract_y
 _atom_site_fract_z
 _atom_site_occupancy
  Si  Si0  1  0.10768837  0.68504609  0.10896744  1
  Si  Si1  1  0.89231163  0.31495391  0.89103256  1
  Si  Si2  1  0.97875645  0.67549068  0.75270242  1
  Si  Si3  1  0.02124355  0.32450932  0.24729758  1
  Cl  Cl4  1  0.74701724  0.33676495  0.41853241  1
  Cl  Cl5  1  0.25298276  0.66323505  0.58146759  1
  Cl  Cl6  1  0.71668289  0.87955384  0.67523227  1
  Cl  Cl7  1  0.28331711  0.12044616  0.32476773  1
  Cl  Cl8  1  0.12696496  0.12558507  0.78854114  1
  Cl  Cl9  1  0.87303504  0.87441493  0.21145886  1
  Cl  Cl10  1  0.57573992  0.28285530  0.89943818  1
  Cl  Cl11  1  0.42426008  0.71714470  0.10056182  1
  O  O12  1  0.95087377  0.30552113  0.07508628  1
  O  O13  1  0.04912623  0.69447887  0.92491372  1
  O  O14  1  0.89879183  0.50035140  0.77948595  1
  O  O15  1  0.10120817  0.49964860  0.22051405  1
