# generated using pymatgen
data_LaIn4Ni
_symmetry_space_group_name_H-M   'P 1'
_cell_length_a   8.76631980
_cell_length_b   8.76632006
_cell_length_c   7.23098185
_cell_angle_alpha   90.00000000
_cell_angle_beta   90.00000000
_cell_angle_gamma   150.18192508
_symmetry_Int_Tables_number   1
_chemical_formula_structural   LaIn4Ni
_chemical_formula_sum   'La2 In8 Ni2'
_cell_volume   276.31513656
_cell_formula_units_Z   2
loop_
 _symmetry_equiv_pos_site_id
 _symmetry_equiv_pos_as_xyz
  1  'x, y, z'
loop_
 _atom_site_type_symbol
 _atom_site_label
 _atom_site_symmetry_multiplicity
 _atom_site_fract_x
 _atom_site_fract_y
 _atom_site_fract_z
 _atom_site_occupancy
  La  La0  1  0.88242655  0.11757345  0.75000000  1
  La  La1  1  0.11757345  0.88242655  0.25000000  1
  In  In2  1  0.50000000  0.50000000  -0.00000000  1
  In  In3  1  0.50000000  0.50000000  0.50000000  1
  In  In4  1  0.07607815  0.92392185  0.75000000  1
  In  In5  1  0.92392185  0.07607815  0.25000000  1
  In  In6  1  0.68976621  0.31023379  0.95046267  1
  In  In7  1  0.31023379  0.68976621  0.04953733  1
  In  In8  1  0.68976621  0.31023379  0.54953733  1
  In  In9  1  0.31023379  0.68976621  0.45046267  1
  Ni  Ni10  1  0.22602454  0.77397546  0.75000000  1
  Ni  Ni11  1  0.77397546  0.22602454  0.25000000  1
