# generated using pymatgen
data_TbGeRu
_symmetry_space_group_name_H-M   'P 1'
_cell_length_a   4.44839117
_cell_length_b   7.06216550
_cell_length_c   7.13690079
_cell_angle_alpha   90.00108777
_cell_angle_beta   90.00000186
_cell_angle_gamma   89.99999979
_symmetry_Int_Tables_number   1
_chemical_formula_structural   TbGeRu
_chemical_formula_sum   'Tb4 Ge4 Ru4'
_cell_volume   224.20769846
_cell_formula_units_Z   4
loop_
 _symmetry_equiv_pos_site_id
 _symmetry_equiv_pos_as_xyz
  1  'x, y, z'
loop_
 _atom_site_type_symbol
 _atom_site_label
 _atom_site_symmetry_multiplicity
 _atom_site_fract_x
 _atom_site_fract_y
 _atom_site_fract_z
 _atom_site_occupancy
  Tb  Tb0  1  0.24999999  0.48080610  0.30885340  1
  Tb  Tb1  1  0.74999996  0.51920266  0.69114294  1
  Tb  Tb2  1  0.24999994  0.98080223  0.19111491  1
  Tb  Tb3  1  0.74999997  0.01919846  0.80888746  1
  Ge  Ge4  1  0.25000002  0.29998492  0.89342812  1
  Ge  Ge5  1  0.74999999  0.70001665  0.10658277  1
  Ge  Ge6  1  0.24999999  0.79997249  0.60658539  1
  Ge  Ge7  1  0.75000002  0.20002480  0.39340261  1
  Ru  Ru8  1  0.75000002  0.84719919  0.43512602  1
  Ru  Ru9  1  0.25000007  0.15279846  0.56486127  1
  Ru  Ru10  1  0.75000003  0.34722298  0.06485727  1
  Ru  Ru11  1  0.24999999  0.65277107  0.93515784  1
