# generated using pymatgen
data_Sc2InC
_symmetry_space_group_name_H-M   'P 1'
_cell_length_a   3.35047673
_cell_length_b   3.35047673
_cell_length_c   15.32847868
_cell_angle_alpha   90.00000000
_cell_angle_beta   90.00000000
_cell_angle_gamma   120.00000960
_symmetry_Int_Tables_number   1
_chemical_formula_structural   Sc2InC
_chemical_formula_sum   'Sc4 In2 C2'
_cell_volume   149.01941522
_cell_formula_units_Z   2
loop_
 _symmetry_equiv_pos_site_id
 _symmetry_equiv_pos_as_xyz
  1  'x, y, z'
loop_
 _atom_site_type_symbol
 _atom_site_label
 _atom_site_symmetry_multiplicity
 _atom_site_fract_x
 _atom_site_fract_y
 _atom_site_fract_z
 _atom_site_occupancy
  Sc  Sc0  1  0.33333300  0.66666700  0.08007045  1
  Sc  Sc1  1  0.33333300  0.66666700  0.41992955  1
  Sc  Sc2  1  0.66666700  0.33333300  0.58007045  1
  Sc  Sc3  1  0.66666700  0.33333300  0.91992955  1
  In  In4  1  0.33333300  0.66666700  0.75000000  1
  In  In5  1  0.66666700  0.33333300  0.25000000  1
  C  C6  1  -0.00000000  -0.00000000  0.00000000  1
  C  C7  1  -0.00000000  -0.00000000  0.50000000  1
