# generated using pymatgen
data_UGeIr
_symmetry_space_group_name_H-M   'P 1'
_cell_length_a   4.37580586
_cell_length_b   6.89052622
_cell_length_c   7.57156492
_cell_angle_alpha   89.99701646
_cell_angle_beta   90.00000000
_cell_angle_gamma   90.00000000
_symmetry_Int_Tables_number   1
_chemical_formula_structural   UGeIr
_chemical_formula_sum   'U4 Ge4 Ir4'
_cell_volume   228.29483464
_cell_formula_units_Z   4
loop_
 _symmetry_equiv_pos_site_id
 _symmetry_equiv_pos_as_xyz
  1  'x, y, z'
loop_
 _atom_site_type_symbol
 _atom_site_label
 _atom_site_symmetry_multiplicity
 _atom_site_fract_x
 _atom_site_fract_y
 _atom_site_fract_z
 _atom_site_occupancy
  U  U0  1  0.25000000  0.48802450  0.20794820  1
  U  U1  1  0.75000000  0.51196487  0.79201789  1
  U  U2  1  0.25000000  0.98803555  0.29198011  1
  U  U3  1  0.75000000  0.01196522  0.70804161  1
  Ge  Ge4  1  0.25000000  0.81787492  0.91601507  1
  Ge  Ge5  1  0.75000000  0.18209228  0.08397993  1
  Ge  Ge6  1  0.25000000  0.31782876  0.58399101  1
  Ge  Ge7  1  0.75000000  0.68217995  0.41600942  1
  Ir  Ir8  1  0.75000000  0.77745891  0.08730843  1
  Ir  Ir9  1  0.25000000  0.22257555  0.91267151  1
  Ir  Ir10  1  0.75000000  0.27736343  0.41268191  1
  Ir  Ir11  1  0.25000000  0.72263606  0.58735590  1
