# generated using pymatgen
data_RuCl2O
_symmetry_space_group_name_H-M   'P 1'
_cell_length_a   3.54571457
_cell_length_b   3.65739553
_cell_length_c   6.32429127
_cell_angle_alpha   106.80043253
_cell_angle_beta   106.27960758
_cell_angle_gamma   90.00000850
_symmetry_Int_Tables_number   1
_chemical_formula_structural   RuCl2O
_chemical_formula_sum   'Ru1 Cl2 O1'
_cell_volume   75.07182818
_cell_formula_units_Z   1
loop_
 _symmetry_equiv_pos_site_id
 _symmetry_equiv_pos_as_xyz
  1  'x, y, z'
loop_
 _atom_site_type_symbol
 _atom_site_label
 _atom_site_symmetry_multiplicity
 _atom_site_fract_x
 _atom_site_fract_y
 _atom_site_fract_z
 _atom_site_occupancy
  Ru  Ru0  1  0.00000000  0.00000000  0.00000000  1
  Cl  Cl1  1  0.36093638  0.86167625  0.72187075  1
  Cl  Cl2  1  0.63906362  0.13832375  0.27812925  1
  O  O3  1  0.00000000  0.50000000  0.00000000  1
