# generated using pymatgen
data_LaInAu
_symmetry_space_group_name_H-M   'P 1'
_cell_length_a   7.84528851
_cell_length_b   7.84528851
_cell_length_c   4.29587248
_cell_angle_alpha   90.00000000
_cell_angle_beta   90.00000000
_cell_angle_gamma   119.99999961
_symmetry_Int_Tables_number   1
_chemical_formula_structural   LaInAu
_chemical_formula_sum   'La3 In3 Au3'
_cell_volume   228.98121409
_cell_formula_units_Z   3
loop_
 _symmetry_equiv_pos_site_id
 _symmetry_equiv_pos_as_xyz
  1  'x, y, z'
loop_
 _atom_site_type_symbol
 _atom_site_label
 _atom_site_symmetry_multiplicity
 _atom_site_fract_x
 _atom_site_fract_y
 _atom_site_fract_z
 _atom_site_occupancy
  La  La0  1  0.58575238  -0.00000000  0.50000000  1
  La  La1  1  0.41424762  0.41424762  0.50000000  1
  La  La2  1  -0.00000000  0.58575238  0.50000000  1
  In  In3  1  -0.00000000  0.24614057  -0.00000000  1
  In  In4  1  0.75385943  0.75385943  0.00000000  1
  In  In5  1  0.24614057  -0.00000000  -0.00000000  1
  Au  Au6  1  0.66666700  0.33333300  -0.00000000  1
  Au  Au7  1  0.33333300  0.66666700  0.00000000  1
  Au  Au8  1  -0.00000000  0.00000000  0.50000000  1
