# generated using pymatgen
data_SrCaSn
_symmetry_space_group_name_H-M   'P 1'
_cell_length_a   5.17101231
_cell_length_b   8.46908547
_cell_length_c   9.62651684
_cell_angle_alpha   90.00000000
_cell_angle_beta   90.00000000
_cell_angle_gamma   90.00000000
_symmetry_Int_Tables_number   1
_chemical_formula_structural   SrCaSn
_chemical_formula_sum   'Sr4 Ca4 Sn4'
_cell_volume   421.58122585
_cell_formula_units_Z   4
loop_
 _symmetry_equiv_pos_site_id
 _symmetry_equiv_pos_as_xyz
  1  'x, y, z'
loop_
 _atom_site_type_symbol
 _atom_site_label
 _atom_site_symmetry_multiplicity
 _atom_site_fract_x
 _atom_site_fract_y
 _atom_site_fract_z
 _atom_site_occupancy
  Sr  Sr0  1  0.75000000  0.97812350  0.31800279  1
  Sr  Sr1  1  0.25000000  0.02187650  0.68199721  1
  Sr  Sr2  1  0.75000000  0.47812350  0.18199721  1
  Sr  Sr3  1  0.25000000  0.52187650  0.81800279  1
  Ca  Ca4  1  0.75000000  0.85128909  0.92950859  1
  Ca  Ca5  1  0.25000000  0.14871091  0.07049141  1
  Ca  Ca6  1  0.75000000  0.35128909  0.57049141  1
  Ca  Ca7  1  0.25000000  0.64871091  0.42950859  1
  Sn  Sn8  1  0.75000000  0.73497566  0.60919968  1
  Sn  Sn9  1  0.25000000  0.26502434  0.39080032  1
  Sn  Sn10  1  0.75000000  0.23497566  0.89080032  1
  Sn  Sn11  1  0.25000000  0.76502434  0.10919968  1
