# generated using pymatgen
data_Ca2Os2O7
_symmetry_space_group_name_H-M   'P 1'
_cell_length_a   7.25656304
_cell_length_b   7.25734390
_cell_length_c   7.25688061
_cell_angle_alpha   120.42103760
_cell_angle_beta   118.39185371
_cell_angle_gamma   91.04550926
_symmetry_Int_Tables_number   1
_chemical_formula_structural   Ca2Os2O7
_chemical_formula_sum   'Ca4 Os4 O14'
_cell_volume   272.49425491
_cell_formula_units_Z   2
loop_
 _symmetry_equiv_pos_site_id
 _symmetry_equiv_pos_as_xyz
  1  'x, y, z'
loop_
 _atom_site_type_symbol
 _atom_site_label
 _atom_site_symmetry_multiplicity
 _atom_site_fract_x
 _atom_site_fract_y
 _atom_site_fract_z
 _atom_site_occupancy
  Ca  Ca0  1  0.50000000  0.50000000  0.00000000  1
  Ca  Ca1  1  0.00000000  -0.00000000  0.00000000  1
  Ca  Ca2  1  0.50000000  0.50000000  0.50000000  1
  Ca  Ca3  1  0.50000000  -0.00000000  0.00000000  1
  Os  Os4  1  0.00000000  0.50000000  0.00000000  1
  Os  Os5  1  0.00000000  -0.00000000  0.50000000  1
  Os  Os6  1  0.00000000  0.50000000  0.50000000  1
  Os  Os7  1  0.50000000  -0.00000000  0.50000000  1
  O  O8  1  0.94774327  0.58436830  0.76840577  1
  O  O9  1  0.05223960  0.82063449  0.63653449  1
  O  O10  1  0.68419449  0.91582553  0.36367318  1
  O  O11  1  0.31582847  0.67943983  0.23166715  1
  O  O12  1  0.05225673  0.41563170  0.23159423  1
  O  O13  1  0.94776040  0.17936551  0.36346551  1
  O  O14  1  0.31580551  0.08417447  0.63632682  1
  O  O15  1  0.68417153  0.32056017  0.76833285  1
  O  O16  1  0.09986377  0.25013328  0.84971610  1
  O  O17  1  0.90013623  0.74986672  0.15028390  1
  O  O18  1  0.36510414  0.09574619  0.26933929  1
  O  O19  1  0.63489586  0.90425381  0.73066071  1
  O  O20  1  0.67352768  0.40423150  0.26928311  1
  O  O21  1  0.32647232  0.59576850  0.73071689  1
