# generated using pymatgen
data_H5ClO2
_symmetry_space_group_name_H-M   'P 1'
_cell_length_a   11.98430488
_cell_length_b   3.92448220
_cell_length_c   6.71287897
_cell_angle_alpha   79.09473537
_cell_angle_beta   90.00000000
_cell_angle_gamma   90.00000000
_symmetry_Int_Tables_number   1
_chemical_formula_structural   H5ClO2
_chemical_formula_sum   'H20 Cl4 O8'
_cell_volume   310.01989994
_cell_formula_units_Z   4
loop_
 _symmetry_equiv_pos_site_id
 _symmetry_equiv_pos_as_xyz
  1  'x, y, z'
loop_
 _atom_site_type_symbol
 _atom_site_label
 _atom_site_symmetry_multiplicity
 _atom_site_fract_x
 _atom_site_fract_y
 _atom_site_fract_z
 _atom_site_occupancy
  H  H0  1  0.60228430  0.22608466  0.09336396  1
  H  H1  1  0.10228430  0.77391534  0.40663604  1
  H  H2  1  0.39771570  0.77391534  0.90663604  1
  H  H3  1  0.89771570  0.22608466  0.59336396  1
  H  H4  1  0.48101234  0.21792841  0.19270919  1
  H  H5  1  0.98101234  0.78207159  0.30729081  1
  H  H6  1  0.51898766  0.78207159  0.80729081  1
  H  H7  1  0.01898766  0.21792841  0.69270919  1
  H  H8  1  0.69355396  0.70933325  0.43080100  1
  H  H9  1  0.19355396  0.29066675  0.06919900  1
  H  H10  1  0.30644604  0.29066675  0.56919900  1
  H  H11  1  0.80644604  0.70933325  0.93080100  1
  H  H12  1  0.90267560  0.43364775  0.84659474  1
  H  H13  1  0.40267560  0.56635225  0.65340526  1
  H  H14  1  0.09732440  0.56635225  0.15340526  1
  H  H15  1  0.59732440  0.43364775  0.34659474  1
  H  H16  1  0.85177842  0.38019283  0.09458149  1
  H  H17  1  0.35177842  0.61980717  0.40541851  1
  H  H18  1  0.14822158  0.61980717  0.90541851  1
  H  H19  1  0.64822158  0.38019283  0.59458149  1
  Cl  Cl20  1  0.82692155  0.02499615  0.34716501  1
  Cl  Cl21  1  0.32692155  0.97500385  0.15283499  1
  Cl  Cl22  1  0.17307845  0.97500385  0.65283499  1
  Cl  Cl23  1  0.67307845  0.02499615  0.84716501  1
  O  O24  1  0.55697958  0.31067576  0.19566402  1
  O  O25  1  0.05697958  0.68932424  0.30433598  1
  O  O26  1  0.44302042  0.68932424  0.80433598  1
  O  O27  1  0.94302042  0.31067576  0.69566402  1
  O  O28  1  0.62755715  0.55804412  0.47292295  1
  O  O29  1  0.12755715  0.44195588  0.02707705  1
  O  O30  1  0.37244285  0.44195588  0.52707705  1
  O  O31  1  0.87244285  0.55804412  0.97292295  1
