# generated using pymatgen
data_CeSbRh
_symmetry_space_group_name_H-M   'P 1'
_cell_length_a   4.66590310
_cell_length_b   7.43533361
_cell_length_c   7.81084026
_cell_angle_alpha   90.00000000
_cell_angle_beta   90.00000000
_cell_angle_gamma   90.00000000
_symmetry_Int_Tables_number   1
_chemical_formula_structural   CeSbRh
_chemical_formula_sum   'Ce4 Sb4 Rh4'
_cell_volume   270.97793612
_cell_formula_units_Z   4
loop_
 _symmetry_equiv_pos_site_id
 _symmetry_equiv_pos_as_xyz
  1  'x, y, z'
loop_
 _atom_site_type_symbol
 _atom_site_label
 _atom_site_symmetry_multiplicity
 _atom_site_fract_x
 _atom_site_fract_y
 _atom_site_fract_z
 _atom_site_occupancy
  Ce  Ce0  1  0.25000000  0.51579501  0.20028715  1
  Ce  Ce1  1  0.75000000  0.48420499  0.79971285  1
  Ce  Ce2  1  0.25000000  0.01579501  0.29971285  1
  Ce  Ce3  1  0.75000000  0.98420499  0.70028715  1
  Sb  Sb4  1  0.25000000  0.18537077  0.90932342  1
  Sb  Sb5  1  0.75000000  0.31462923  0.40932342  1
  Sb  Sb6  1  0.25000000  0.68537077  0.59067658  1
  Sb  Sb7  1  0.75000000  0.81462923  0.09067658  1
  Rh  Rh8  1  0.75000000  0.20354366  0.07992338  1
  Rh  Rh9  1  0.25000000  0.29645634  0.57992338  1
  Rh  Rh10  1  0.75000000  0.70354366  0.42007662  1
  Rh  Rh11  1  0.25000000  0.79645634  0.92007662  1
