# generated using pymatgen
data_NdSnPt
_symmetry_space_group_name_H-M   'P 1'
_cell_length_a   4.62915992
_cell_length_b   7.46348939
_cell_length_c   8.06017477
_cell_angle_alpha   90.00000000
_cell_angle_beta   90.00000000
_cell_angle_gamma   90.00000000
_symmetry_Int_Tables_number   1
_chemical_formula_structural   NdSnPt
_chemical_formula_sum   'Nd4 Sn4 Pt4'
_cell_volume   278.47650699
_cell_formula_units_Z   4
loop_
 _symmetry_equiv_pos_site_id
 _symmetry_equiv_pos_as_xyz
  1  'x, y, z'
loop_
 _atom_site_type_symbol
 _atom_site_label
 _atom_site_symmetry_multiplicity
 _atom_site_fract_x
 _atom_site_fract_y
 _atom_site_fract_z
 _atom_site_occupancy
  Nd  Nd0  1  0.75000000  0.48768858  0.80457366  1
  Nd  Nd1  1  0.25000000  0.01231142  0.30457366  1
  Nd  Nd2  1  0.75000000  0.98768858  0.69542634  1
  Nd  Nd3  1  0.25000000  0.51231142  0.19542634  1
  Sn  Sn4  1  0.25000000  0.67655605  0.58373115  1
  Sn  Sn5  1  0.25000000  0.17655605  0.91626885  1
  Sn  Sn6  1  0.75000000  0.32344395  0.41626885  1
  Sn  Sn7  1  0.75000000  0.82344395  0.08373115  1
  Pt  Pt8  1  0.25000000  0.78995315  0.90923601  1
  Pt  Pt9  1  0.25000000  0.28995315  0.59076399  1
  Pt  Pt10  1  0.75000000  0.71004685  0.40923601  1
  Pt  Pt11  1  0.75000000  0.21004685  0.09076399  1
