# generated using pymatgen
data_H3N
_symmetry_space_group_name_H-M   'P 1'
_cell_length_a   4.97708948
_cell_length_b   4.97708948
_cell_length_c   4.97708948
_cell_angle_alpha   90.00000000
_cell_angle_beta   90.00000000
_cell_angle_gamma   90.00000000
_symmetry_Int_Tables_number   1
_chemical_formula_structural   H3N
_chemical_formula_sum   'H12 N4'
_cell_volume   123.28957206
_cell_formula_units_Z   4
loop_
 _symmetry_equiv_pos_site_id
 _symmetry_equiv_pos_as_xyz
  1  'x, y, z'
loop_
 _atom_site_type_symbol
 _atom_site_label
 _atom_site_symmetry_multiplicity
 _atom_site_fract_x
 _atom_site_fract_y
 _atom_site_fract_z
 _atom_site_occupancy
  H  H0  1  0.02566050  0.37440103  0.35824229  1
  H  H1  1  0.12559897  0.64175771  0.52566050  1
  H  H2  1  0.14175771  0.97433950  0.87440103  1
  H  H3  1  0.35824229  0.02566050  0.37440103  1
  H  H4  1  0.37440103  0.35824229  0.02566050  1
  H  H5  1  0.47433950  0.62559897  0.85824229  1
  H  H6  1  0.52566050  0.12559897  0.64175771  1
  H  H7  1  0.62559897  0.85824229  0.47433950  1
  H  H8  1  0.64175771  0.52566050  0.12559897  1
  H  H9  1  0.85824229  0.47433950  0.62559897  1
  H  H10  1  0.87440103  0.14175771  0.97433950  1
  H  H11  1  0.97433950  0.87440103  0.14175771  1
  N  N12  1  0.03956435  0.03956435  0.03956435  1
  N  N13  1  0.46043565  0.96043565  0.53956435  1
  N  N14  1  0.53956435  0.46043565  0.96043565  1
  N  N15  1  0.96043565  0.53956435  0.46043565  1
