# generated using pymatgen
data_ErNiGe
_symmetry_space_group_name_H-M   'P 1'
_cell_length_a   4.17576008
_cell_length_b   6.81278950
_cell_length_c   7.19569562
_cell_angle_alpha   90.00000000
_cell_angle_beta   90.00000000
_cell_angle_gamma   90.00000000
_symmetry_Int_Tables_number   1
_chemical_formula_structural   ErNiGe
_chemical_formula_sum   'Er4 Ni4 Ge4'
_cell_volume   204.70728240
_cell_formula_units_Z   4
loop_
 _symmetry_equiv_pos_site_id
 _symmetry_equiv_pos_as_xyz
  1  'x, y, z'
loop_
 _atom_site_type_symbol
 _atom_site_label
 _atom_site_symmetry_multiplicity
 _atom_site_fract_x
 _atom_site_fract_y
 _atom_site_fract_z
 _atom_site_occupancy
  Er  Er0  1  0.25000000  0.49216743  0.79273420  1
  Er  Er1  1  0.75000000  0.50783257  0.20726580  1
  Er  Er2  1  0.25000000  0.99216743  0.70726580  1
  Er  Er3  1  0.75000000  0.00783257  0.29273420  1
  Ni  Ni4  1  0.75000000  0.30840825  0.58161983  1
  Ni  Ni5  1  0.25000000  0.19159175  0.08161983  1
  Ni  Ni6  1  0.75000000  0.80840825  0.91838017  1
  Ni  Ni7  1  0.25000000  0.69159175  0.41838017  1
  Ge  Ge8  1  0.25000000  0.30178621  0.41129367  1
  Ge  Ge9  1  0.75000000  0.19821379  0.91129367  1
  Ge  Ge10  1  0.25000000  0.80178621  0.08870633  1
  Ge  Ge11  1  0.75000000  0.69821379  0.58870633  1
