# generated using pymatgen
data_AsRh2
_symmetry_space_group_name_H-M   'P 1'
_cell_length_a   4.02873390
_cell_length_b   4.02873464
_cell_length_c   4.02873373
_cell_angle_alpha   59.99998240
_cell_angle_beta   59.99997640
_cell_angle_gamma   59.99998539
_symmetry_Int_Tables_number   1
_chemical_formula_structural   AsRh2
_chemical_formula_sum   'As1 Rh2'
_cell_volume   46.23710450
_cell_formula_units_Z   1
loop_
 _symmetry_equiv_pos_site_id
 _symmetry_equiv_pos_as_xyz
  1  'x, y, z'
loop_
 _atom_site_type_symbol
 _atom_site_label
 _atom_site_symmetry_multiplicity
 _atom_site_fract_x
 _atom_site_fract_y
 _atom_site_fract_z
 _atom_site_occupancy
  As  As0  1  -0.00000000  0.00000000  0.00000000  1
  Rh  Rh1  1  0.25000000  0.25000000  0.25000000  1
  Rh  Rh2  1  0.75000000  0.75000000  0.75000000  1
