# generated using pymatgen
data_Np(OF)2
_symmetry_space_group_name_H-M   'P 1'
_cell_length_a   5.81807605
_cell_length_b   5.81807605
_cell_length_c   5.81807613
_cell_angle_alpha   42.14641486
_cell_angle_beta   42.14641486
_cell_angle_gamma   42.14640628
_symmetry_Int_Tables_number   1
_chemical_formula_structural   Np(OF)2
_chemical_formula_sum   'Np1 O2 F2'
_cell_volume   80.23957881
_cell_formula_units_Z   1
loop_
 _symmetry_equiv_pos_site_id
 _symmetry_equiv_pos_as_xyz
  1  'x, y, z'
loop_
 _atom_site_type_symbol
 _atom_site_label
 _atom_site_symmetry_multiplicity
 _atom_site_fract_x
 _atom_site_fract_y
 _atom_site_fract_z
 _atom_site_occupancy
  Np  Np0  1  -0.00000000  -0.00000000  0.00000000  1
  O  O1  1  0.88927222  0.88927222  0.88927222  1
  O  O2  1  0.11072778  0.11072778  0.11072778  1
  F  F3  1  0.33362025  0.33362025  0.33362025  1
  F  F4  1  0.66637975  0.66637975  0.66637975  1
