# generated using pymatgen
data_PrSnPt
_symmetry_space_group_name_H-M   'P 1'
_cell_length_a   4.65028092
_cell_length_b   7.52921769
_cell_length_c   8.07780315
_cell_angle_alpha   90.00000000
_cell_angle_beta   90.00000000
_cell_angle_gamma   90.00000000
_symmetry_Int_Tables_number   1
_chemical_formula_structural   PrSnPt
_chemical_formula_sum   'Pr4 Sn4 Pt4'
_cell_volume   282.82793886
_cell_formula_units_Z   4
loop_
 _symmetry_equiv_pos_site_id
 _symmetry_equiv_pos_as_xyz
  1  'x, y, z'
loop_
 _atom_site_type_symbol
 _atom_site_label
 _atom_site_symmetry_multiplicity
 _atom_site_fract_x
 _atom_site_fract_y
 _atom_site_fract_z
 _atom_site_occupancy
  Pr  Pr0  1  0.75000000  0.48640748  0.19490104  1
  Pr  Pr1  1  0.25000000  0.01359252  0.69490104  1
  Pr  Pr2  1  0.75000000  0.98640748  0.30509896  1
  Pr  Pr3  1  0.25000000  0.51359252  0.80509896  1
  Sn  Sn4  1  0.25000000  0.67616395  0.41622933  1
  Sn  Sn5  1  0.25000000  0.17616395  0.08377067  1
  Sn  Sn6  1  0.75000000  0.32383605  0.58377067  1
  Sn  Sn7  1  0.75000000  0.82383605  0.91622933  1
  Pt  Pt8  1  0.25000000  0.79228569  0.09108934  1
  Pt  Pt9  1  0.25000000  0.29228569  0.40891066  1
  Pt  Pt10  1  0.75000000  0.70771431  0.59108934  1
  Pt  Pt11  1  0.75000000  0.20771431  0.90891066  1
