# generated using pymatgen
data_YCrB4
_symmetry_space_group_name_H-M   'P 1'
_cell_length_a   3.44648958
_cell_length_b   5.91809299
_cell_length_c   11.43413371
_cell_angle_alpha   90.00000000
_cell_angle_beta   90.00000000
_cell_angle_gamma   90.00000000
_symmetry_Int_Tables_number   1
_chemical_formula_structural   YCrB4
_chemical_formula_sum   'Y4 Cr4 B16'
_cell_volume   233.21797558
_cell_formula_units_Z   4
loop_
 _symmetry_equiv_pos_site_id
 _symmetry_equiv_pos_as_xyz
  1  'x, y, z'
loop_
 _atom_site_type_symbol
 _atom_site_label
 _atom_site_symmetry_multiplicity
 _atom_site_fract_x
 _atom_site_fract_y
 _atom_site_fract_z
 _atom_site_occupancy
  Y  Y0  1  0.00000000  0.37500099  0.65046827  1
  Y  Y1  1  -0.00000000  0.62499901  0.34953173  1
  Y  Y2  1  0.00000000  0.87500099  0.84953173  1
  Y  Y3  1  -0.00000000  0.12499901  0.15046827  1
  Cr  Cr4  1  -0.00000000  0.37919200  0.92137056  1
  Cr  Cr5  1  0.00000000  0.62080800  0.07862944  1
  Cr  Cr6  1  0.00000000  0.87919200  0.57862944  1
  Cr  Cr7  1  0.00000000  0.12080800  0.42137056  1
  B  B8  1  0.50000000  0.02468384  0.69132386  1
  B  B9  1  0.50000000  0.97531616  0.30867614  1
  B  B10  1  0.50000000  0.52468384  0.80867614  1
  B  B11  1  0.50000000  0.47531616  0.19132386  1
  B  B12  1  0.50000000  0.11302982  0.54671775  1
  B  B13  1  0.50000000  0.88697018  0.45328225  1
  B  B14  1  0.50000000  0.61302982  0.95328225  1
  B  B15  1  0.50000000  0.38697018  0.04671775  1
  B  B16  1  0.50000000  0.27963348  0.31648092  1
  B  B17  1  0.50000000  0.72036652  0.68351908  1
  B  B18  1  0.50000000  0.77963348  0.18351908  1
  B  B19  1  0.50000000  0.22036652  0.81648092  1
  B  B20  1  0.50000000  0.36223578  0.46745896  1
  B  B21  1  0.50000000  0.63776422  0.53254104  1
  B  B22  1  0.50000000  0.86223578  0.03254104  1
  B  B23  1  0.50000000  0.13776422  0.96745896  1
