# generated using pymatgen
data_HoGeRu
_symmetry_space_group_name_H-M   'P 1'
_cell_length_a   4.39799512
_cell_length_b   6.99631909
_cell_length_c   7.15935327
_cell_angle_alpha   90.00000000
_cell_angle_beta   90.00000000
_cell_angle_gamma   90.00000000
_symmetry_Int_Tables_number   1
_chemical_formula_structural   HoGeRu
_chemical_formula_sum   'Ho4 Ge4 Ru4'
_cell_volume   220.29170513
_cell_formula_units_Z   4
loop_
 _symmetry_equiv_pos_site_id
 _symmetry_equiv_pos_as_xyz
  1  'x, y, z'
loop_
 _atom_site_type_symbol
 _atom_site_label
 _atom_site_symmetry_multiplicity
 _atom_site_fract_x
 _atom_site_fract_y
 _atom_site_fract_z
 _atom_site_occupancy
  Ho  Ho0  1  0.25000000  0.48438738  0.80788266  1
  Ho  Ho1  1  0.75000000  0.51561262  0.19211734  1
  Ho  Ho2  1  0.25000000  0.98438738  0.69211734  1
  Ho  Ho3  1  0.75000000  0.01561262  0.30788266  1
  Ge  Ge4  1  0.25000000  0.79756710  0.10661677  1
  Ge  Ge5  1  0.75000000  0.20243290  0.89338323  1
  Ge  Ge6  1  0.25000000  0.29756710  0.39338323  1
  Ge  Ge7  1  0.75000000  0.70243290  0.60661677  1
  Ru  Ru8  1  0.75000000  0.84591207  0.93602888  1
  Ru  Ru9  1  0.25000000  0.15408793  0.06397112  1
  Ru  Ru10  1  0.75000000  0.34591207  0.56397112  1
  Ru  Ru11  1  0.25000000  0.65408793  0.43602988  1
