# generated using pymatgen
data_USiRh
_symmetry_space_group_name_H-M   'P 1'
_cell_length_a   3.91736569
_cell_length_b   6.96775961
_cell_length_c   7.41739683
_cell_angle_alpha   89.98596304
_cell_angle_beta   90.00000000
_cell_angle_gamma   90.00000000
_symmetry_Int_Tables_number   1
_chemical_formula_structural   USiRh
_chemical_formula_sum   'U4 Si4 Rh4'
_cell_volume   202.45978691
_cell_formula_units_Z   4
loop_
 _symmetry_equiv_pos_site_id
 _symmetry_equiv_pos_as_xyz
  1  'x, y, z'
loop_
 _atom_site_type_symbol
 _atom_site_label
 _atom_site_symmetry_multiplicity
 _atom_site_fract_x
 _atom_site_fract_y
 _atom_site_fract_z
 _atom_site_occupancy
  U  U0  1  0.75000000  0.63761878  0.49899184  1
  U  U1  1  0.25000000  0.36238122  0.50100816  1
  U  U2  1  0.75000000  0.86197490  -0.00094118  1
  U  U3  1  0.25000000  0.13802510  0.00094118  1
  Si  Si4  1  0.75000000  0.12839083  0.69824100  1
  Si  Si5  1  0.25000000  0.87160917  0.30175900  1
  Si  Si6  1  0.75000000  0.37144051  0.19831045  1
  Si  Si7  1  0.25000000  0.62855949  0.80168955  1
  Rh  Rh8  1  0.25000000  0.56207800  0.13103644  1
  Rh  Rh9  1  0.75000000  0.43792200  0.86896356  1
  Rh  Rh10  1  0.25000000  0.93791992  0.63094458  1
  Rh  Rh11  1  0.75000000  0.06208008  0.36905542  1
