# generated using pymatgen
data_V2Ni2O7
_symmetry_space_group_name_H-M   'P 1'
_cell_length_a   8.24927546
_cell_length_b   6.50567638
_cell_length_c   9.32248645
_cell_angle_alpha   80.19962340
_cell_angle_beta   90.00000000
_cell_angle_gamma   90.00000000
_symmetry_Int_Tables_number   1
_chemical_formula_structural   V2Ni2O7
_chemical_formula_sum   'V8 Ni8 O28'
_cell_volume   493.00981824
_cell_formula_units_Z   4
loop_
 _symmetry_equiv_pos_site_id
 _symmetry_equiv_pos_as_xyz
  1  'x, y, z'
loop_
 _atom_site_type_symbol
 _atom_site_label
 _atom_site_symmetry_multiplicity
 _atom_site_fract_x
 _atom_site_fract_y
 _atom_site_fract_z
 _atom_site_occupancy
  V  V0  1  0.51881542  0.80494716  0.31169867  1
  V  V1  1  0.01881542  0.19505284  0.18830133  1
  V  V2  1  0.48118458  0.19505284  0.68830133  1
  V  V3  1  0.98118458  0.80494716  0.81169867  1
  V  V4  1  0.26065207  0.63612401  0.03105043  1
  V  V5  1  0.76065207  0.36387599  0.46894957  1
  V  V6  1  0.73934793  0.36387599  0.96894957  1
  V  V7  1  0.23934793  0.63612401  0.53105043  1
  Ni  Ni8  1  0.88683945  0.69746394  0.17856057  1
  Ni  Ni9  1  0.38683945  0.30253606  0.32143943  1
  Ni  Ni10  1  0.11316055  0.30253606  0.82143943  1
  Ni  Ni11  1  0.61316055  0.69746394  0.67856057  1
  Ni  Ni12  1  0.62193122  0.85397335  0.96283126  1
  Ni  Ni13  1  0.12193122  0.14602665  0.53716874  1
  Ni  Ni14  1  0.37806878  0.14602665  0.03716874  1
  Ni  Ni15  1  0.87806878  0.85397335  0.46283126  1
  O  O16  1  0.88082681  0.14485363  0.50631982  1
  O  O17  1  0.38082681  0.85514637  0.99368018  1
  O  O18  1  0.11917319  0.85514637  0.49368018  1
  O  O19  1  0.61917319  0.14485363  0.00631982  1
  O  O20  1  0.58486656  0.96948789  0.74860124  1
  O  O21  1  0.08486656  0.03051211  0.75139876  1
  O  O22  1  0.41513344  0.03051211  0.25139876  1
  O  O23  1  0.91513344  0.96948789  0.24860124  1
  O  O24  1  0.87699930  0.32183977  0.84816905  1
  O  O25  1  0.37699930  0.67816023  0.65183095  1
  O  O26  1  0.12300070  0.67816023  0.15183095  1
  O  O27  1  0.62300070  0.32183977  0.34816905  1
  O  O28  1  0.85636548  0.74384537  0.67836657  1
  O  O29  1  0.35636548  0.25615463  0.82163343  1
  O  O30  1  0.14363452  0.25615463  0.32163343  1
  O  O31  1  0.64363452  0.74384537  0.17836657  1
  O  O32  1  0.86792703  0.39857961  0.12560758  1
  O  O33  1  0.36792703  0.60142039  0.37439242  1
  O  O34  1  0.13207297  0.60142039  0.87439242  1
  O  O35  1  0.63207297  0.39857961  0.62560758  1
  O  O36  1  0.87666485  0.57582290  0.39282386  1
  O  O37  1  0.37666485  0.42417710  0.10717614  1
  O  O38  1  0.12333515  0.42417710  0.60717614  1
  O  O39  1  0.62333515  0.57582290  0.89282386  1
  O  O40  1  0.63184019  0.82953466  0.46094991  1
  O  O41  1  0.13184019  0.17046534  0.03905009  1
  O  O42  1  0.36815981  0.17046534  0.53905009  1
  O  O43  1  0.86815981  0.82953466  0.96094991  1
