# generated using pymatgen
data_Ca9Zn4Sb9
_symmetry_space_group_name_H-M   'P 1'
_cell_length_a   4.53529749
_cell_length_b   12.49026830
_cell_length_c   21.84935085
_cell_angle_alpha   90.00000000
_cell_angle_beta   90.00000000
_cell_angle_gamma   90.00000000
_symmetry_Int_Tables_number   1
_chemical_formula_structural   Ca9Zn4Sb9
_chemical_formula_sum   'Ca18 Zn8 Sb18'
_cell_volume   1237.70197953
_cell_formula_units_Z   2
loop_
 _symmetry_equiv_pos_site_id
 _symmetry_equiv_pos_as_xyz
  1  'x, y, z'
loop_
 _atom_site_type_symbol
 _atom_site_label
 _atom_site_symmetry_multiplicity
 _atom_site_fract_x
 _atom_site_fract_y
 _atom_site_fract_z
 _atom_site_occupancy
  Ca  Ca0  1  0.50000000  0.00000000  0.00000000  1
  Ca  Ca1  1  0.50000000  0.50000000  0.50000000  1
  Ca  Ca2  1  0.00000000  0.86632792  0.86260343  1
  Ca  Ca3  1  0.00000000  0.13367208  0.13739657  1
  Ca  Ca4  1  -0.00000000  0.36632792  0.63739657  1
  Ca  Ca5  1  0.00000000  0.63367208  0.36260343  1
  Ca  Ca6  1  -0.00000000  0.56428780  0.90895988  1
  Ca  Ca7  1  0.00000000  0.43571220  0.09104012  1
  Ca  Ca8  1  -0.00000000  0.06428780  0.59104012  1
  Ca  Ca9  1  -0.00000000  0.93571220  0.40895988  1
  Ca  Ca10  1  0.00000000  0.62234876  0.73690853  1
  Ca  Ca11  1  -0.00000000  0.37765124  0.26309147  1
  Ca  Ca12  1  0.00000000  0.12234876  0.76309147  1
  Ca  Ca13  1  -0.00000000  0.87765124  0.23690853  1
  Ca  Ca14  1  0.50000000  0.78730202  0.60235951  1
  Ca  Ca15  1  0.50000000  0.21269798  0.39764049  1
  Ca  Ca16  1  0.50000000  0.28730202  0.89764049  1
  Ca  Ca17  1  0.50000000  0.71269798  0.10235951  1
  Zn  Zn18  1  0.50000000  0.72304472  0.95407692  1
  Zn  Zn19  1  0.50000000  0.27695528  0.04592308  1
  Zn  Zn20  1  0.50000000  0.22304472  0.54592308  1
  Zn  Zn21  1  0.50000000  0.77695528  0.45407692  1
  Zn  Zn22  1  0.50000000  0.88310158  0.76292383  1
  Zn  Zn23  1  0.50000000  0.11689842  0.23707617  1
  Zn  Zn24  1  0.50000000  0.38310158  0.73707617  1
  Zn  Zn25  1  0.50000000  0.61689842  0.26292383  1
  Sb  Sb26  1  0.50000000  0.50000000  0.00000000  1
  Sb  Sb27  1  0.50000000  0.00000000  0.50000000  1
  Sb  Sb28  1  0.00000000  0.69491733  0.50483687  1
  Sb  Sb29  1  0.00000000  0.30508267  0.49516313  1
  Sb  Sb30  1  0.00000000  0.19491733  0.99516313  1
  Sb  Sb31  1  0.00000000  0.80508267  0.00483687  1
  Sb  Sb32  1  0.00000000  0.88020285  0.69564089  1
  Sb  Sb33  1  0.00000000  0.11979715  0.30435911  1
  Sb  Sb34  1  0.00000000  0.38020285  0.80435911  1
  Sb  Sb35  1  0.00000000  0.61979715  0.19564089  1
  Sb  Sb36  1  0.50000000  0.54025876  0.64717417  1
  Sb  Sb37  1  0.50000000  0.45974124  0.35282583  1
  Sb  Sb38  1  0.50000000  0.04025876  0.85282583  1
  Sb  Sb39  1  0.50000000  0.95974124  0.14717417  1
  Sb  Sb40  1  0.50000000  0.69227473  0.83247747  1
  Sb  Sb41  1  0.50000000  0.30772527  0.16752253  1
  Sb  Sb42  1  0.50000000  0.19227473  0.66752253  1
  Sb  Sb43  1  0.50000000  0.80772527  0.33247747  1
