# generated using pymatgen
data_SiTePt
_symmetry_space_group_name_H-M   'P 1'
_cell_length_a   6.18489233
_cell_length_b   6.28311977
_cell_length_c   12.56048367
_cell_angle_alpha   90.00000000
_cell_angle_beta   90.00000000
_cell_angle_gamma   90.00000000
_symmetry_Int_Tables_number   1
_chemical_formula_structural   SiTePt
_chemical_formula_sum   'Si8 Te8 Pt8'
_cell_volume   488.10566170
_cell_formula_units_Z   8
loop_
 _symmetry_equiv_pos_site_id
 _symmetry_equiv_pos_as_xyz
  1  'x, y, z'
loop_
 _atom_site_type_symbol
 _atom_site_label
 _atom_site_symmetry_multiplicity
 _atom_site_fract_x
 _atom_site_fract_y
 _atom_site_fract_z
 _atom_site_occupancy
  Si  Si0  1  0.87159521  0.33304706  0.43890982  1
  Si  Si1  1  0.37159521  0.16695294  0.56109018  1
  Si  Si2  1  0.62840479  0.66695294  0.93890982  1
  Si  Si3  1  0.37159521  0.33304706  0.06109018  1
  Si  Si4  1  0.87159521  0.16695294  0.93890982  1
  Si  Si5  1  0.62840479  0.83304706  0.43890982  1
  Si  Si6  1  0.12840479  0.66695294  0.56109018  1
  Si  Si7  1  0.12840479  0.83304706  0.06109018  1
  Te  Te8  1  0.61667959  0.08397950  0.17429618  1
  Te  Te9  1  0.88332041  0.91602050  0.67429618  1
  Te  Te10  1  0.38332041  0.58397950  0.32570382  1
  Te  Te11  1  0.88332041  0.58397950  0.17429618  1
  Te  Te12  1  0.61667959  0.41602050  0.67429618  1
  Te  Te13  1  0.11667959  0.08397950  0.32570382  1
  Te  Te14  1  0.11667959  0.41602050  0.82570382  1
  Te  Te15  1  0.38332041  0.91602050  0.82570382  1
  Pt  Pt16  1  0.52471914  0.31316944  0.88641126  1
  Pt  Pt17  1  0.02471914  0.18683056  0.11358874  1
  Pt  Pt18  1  0.47528086  0.81316944  0.61358874  1
  Pt  Pt19  1  0.97528086  0.68683056  0.38641126  1
  Pt  Pt20  1  0.47528086  0.68683056  0.11358874  1
  Pt  Pt21  1  0.97528086  0.81316944  0.88641126  1
  Pt  Pt22  1  0.52471914  0.18683056  0.38641126  1
  Pt  Pt23  1  0.02471914  0.31316944  0.61358874  1
