# generated using pymatgen
data_PuSb
_symmetry_space_group_name_H-M   'P 1'
_cell_length_a   4.45354772
_cell_length_b   4.45354789
_cell_length_c   4.45354705
_cell_angle_alpha   59.99999821
_cell_angle_beta   59.99999690
_cell_angle_gamma   59.99999449
_symmetry_Int_Tables_number   1
_chemical_formula_structural   PuSb
_chemical_formula_sum   'Pu1 Sb1'
_cell_volume   62.46018255
_cell_formula_units_Z   1
loop_
 _symmetry_equiv_pos_site_id
 _symmetry_equiv_pos_as_xyz
  1  'x, y, z'
loop_
 _atom_site_type_symbol
 _atom_site_label
 _atom_site_symmetry_multiplicity
 _atom_site_fract_x
 _atom_site_fract_y
 _atom_site_fract_z
 _atom_site_occupancy
  Pu  Pu0  1  -0.00000000  0.00000000  -0.00000000  1
  Sb  Sb1  1  0.50000000  0.50000000  0.50000000  1
