# generated using pymatgen
data_HCNO
_symmetry_space_group_name_H-M   'P 1'
_cell_length_a   6.74524511
_cell_length_b   6.74524511
_cell_length_c   8.18312055
_cell_angle_alpha   54.72512933
_cell_angle_beta   54.72512933
_cell_angle_gamma   60.03487034
_symmetry_Int_Tables_number   1
_chemical_formula_structural   HCNO
_chemical_formula_sum   'H6 C6 N6 O6'
_cell_volume   240.33125255
_cell_formula_units_Z   6
loop_
 _symmetry_equiv_pos_site_id
 _symmetry_equiv_pos_as_xyz
  1  'x, y, z'
loop_
 _atom_site_type_symbol
 _atom_site_label
 _atom_site_symmetry_multiplicity
 _atom_site_fract_x
 _atom_site_fract_y
 _atom_site_fract_z
 _atom_site_occupancy
  H  H0  1  0.16726762  0.46793648  0.26528949  1
  H  H1  1  0.87459724  0.12540276  0.25000000  1
  H  H2  1  0.46793648  0.16726762  0.76528949  1
  H  H3  1  0.83273238  0.53206352  0.73471051  1
  H  H4  1  0.53206352  0.83273238  0.23471051  1
  H  H5  1  0.12540276  0.87459724  0.75000000  1
  C  C6  1  0.73735675  0.48026369  0.23938107  1
  C  C7  1  0.48026369  0.73735675  0.73938107  1
  C  C8  1  0.68490909  0.31509091  0.75000000  1
  C  C9  1  0.31509091  0.68490909  0.25000000  1
  C  C10  1  0.51973631  0.26264325  0.26061893  1
  C  C11  1  0.26264325  0.51973631  0.76061893  1
  N  N12  1  0.52899556  0.67901272  0.23943551  1
  N  N13  1  0.27743461  0.72256539  0.75000000  1
  N  N14  1  0.72256539  0.27743461  0.25000000  1
  N  N15  1  0.47100444  0.32098728  0.76056449  1
  N  N16  1  0.67901272  0.52899556  0.73943551  1
  N  N17  1  0.32098728  0.47100444  0.26056449  1
  O  O18  1  0.51574303  0.07804116  0.26784064  1
  O  O19  1  0.92195884  0.48425697  0.23215936  1
  O  O20  1  0.48425697  0.92195884  0.73215936  1
  O  O21  1  0.07804116  0.51574303  0.76784064  1
  O  O22  1  0.13409738  0.86590262  0.25000000  1
  O  O23  1  0.86590262  0.13409738  0.75000000  1
