# generated using pymatgen
data_H7NF4
_symmetry_space_group_name_H-M   'P 1'
_cell_length_a   5.91167222
_cell_length_b   5.91167222
_cell_length_c   5.91167175
_cell_angle_alpha   80.00984237
_cell_angle_beta   80.00984237
_cell_angle_gamma   80.00985133
_symmetry_Int_Tables_number   1
_chemical_formula_structural   H7NF4
_chemical_formula_sum   'H14 N2 F8'
_cell_volume   198.18096231
_cell_formula_units_Z   2
loop_
 _symmetry_equiv_pos_site_id
 _symmetry_equiv_pos_as_xyz
  1  'x, y, z'
loop_
 _atom_site_type_symbol
 _atom_site_label
 _atom_site_symmetry_multiplicity
 _atom_site_fract_x
 _atom_site_fract_y
 _atom_site_fract_z
 _atom_site_occupancy
  H  H0  1  0.58381301  0.58381301  0.58381301  1
  H  H1  1  0.08381301  0.08381301  0.08381301  1
  H  H2  1  0.48309759  0.59137251  0.33613714  1
  H  H3  1  0.33613714  0.48309759  0.59137251  1
  H  H4  1  0.59137251  0.33613714  0.48309759  1
  H  H5  1  0.98309759  0.83613714  0.09137251  1
  H  H6  1  0.09137251  0.98309759  0.83613714  1
  H  H7  1  0.83613714  0.09137251  0.98309759  1
  H  H8  1  0.75620350  0.93526020  0.56522300  1
  H  H9  1  0.56522300  0.75620350  0.93526020  1
  H  H10  1  0.06522300  0.43526020  0.25620350  1
  H  H11  1  0.43526020  0.25620350  0.06522300  1
  H  H12  1  0.25620350  0.06522300  0.43526020  1
  H  H13  1  0.93526020  0.56522300  0.75620350  1
  N  N14  1  0.49769062  0.49769062  0.49769062  1
  N  N15  1  -0.00230938  -0.00230938  -0.00230938  1
  F  F16  1  0.76945712  0.06918589  0.44134200  1
  F  F17  1  0.44134200  0.76945712  0.06918589  1
  F  F18  1  0.06918589  0.44134200  0.76945712  1
  F  F19  1  0.26945712  0.94134200  0.56918589  1
  F  F20  1  0.56918589  0.26945712  0.94134200  1
  F  F21  1  0.94134200  0.56918589  0.26945712  1
  F  F22  1  0.74171841  0.74171841  0.74171841  1
  F  F23  1  0.24171841  0.24171841  0.24171841  1
