# generated using pymatgen
data_Yb(GeRu)2
_symmetry_space_group_name_H-M   'P 1'
_cell_length_a   5.69121071
_cell_length_b   5.69121071
_cell_length_c   5.69121071
_cell_angle_alpha   136.42705868
_cell_angle_beta   136.42705868
_cell_angle_gamma   63.32078236
_symmetry_Int_Tables_number   1
_chemical_formula_structural   Yb(GeRu)2
_chemical_formula_sum   'Yb1 Ge2 Ru2'
_cell_volume   86.45458480
_cell_formula_units_Z   1
loop_
 _symmetry_equiv_pos_site_id
 _symmetry_equiv_pos_as_xyz
  1  'x, y, z'
loop_
 _atom_site_type_symbol
 _atom_site_label
 _atom_site_symmetry_multiplicity
 _atom_site_fract_x
 _atom_site_fract_y
 _atom_site_fract_z
 _atom_site_occupancy
  Yb  Yb0  1  0.00000000  0.00000000  0.00000000  1
  Ge  Ge1  1  0.62954635  0.62954635  0.00000000  1
  Ge  Ge2  1  0.37045365  0.37045365  0.00000000  1
  Ru  Ru3  1  0.25000000  0.75000000  0.50000000  1
  Ru  Ru4  1  0.75000000  0.25000000  0.50000000  1
