# generated using pymatgen
data_SrCaPb
_symmetry_space_group_name_H-M   'P 1'
_cell_length_a   5.21315453
_cell_length_b   8.51509185
_cell_length_c   9.68031028
_cell_angle_alpha   90.00054149
_cell_angle_beta   90.00000000
_cell_angle_gamma   90.00000000
_symmetry_Int_Tables_number   1
_chemical_formula_structural   SrCaPb
_chemical_formula_sum   'Sr4 Ca4 Pb4'
_cell_volume   429.71371330
_cell_formula_units_Z   4
loop_
 _symmetry_equiv_pos_site_id
 _symmetry_equiv_pos_as_xyz
  1  'x, y, z'
loop_
 _atom_site_type_symbol
 _atom_site_label
 _atom_site_symmetry_multiplicity
 _atom_site_fract_x
 _atom_site_fract_y
 _atom_site_fract_z
 _atom_site_occupancy
  Sr  Sr0  1  0.75000000  0.97831022  0.31829241  1
  Sr  Sr1  1  0.25000000  0.02168978  0.68170759  1
  Sr  Sr2  1  0.75000000  0.47830943  0.18170883  1
  Sr  Sr3  1  0.25000000  0.52169057  0.81829117  1
  Ca  Ca4  1  0.75000000  0.85146926  0.92955259  1
  Ca  Ca5  1  0.25000000  0.14853074  0.07044741  1
  Ca  Ca6  1  0.75000000  0.35147266  0.57044740  1
  Ca  Ca7  1  0.25000000  0.64852734  0.42955260  1
  Pb  Pb8  1  0.75000000  0.73544960  0.60905674  1
  Pb  Pb9  1  0.25000000  0.26455040  0.39094326  1
  Pb  Pb10  1  0.75000000  0.23545662  0.89094139  1
  Pb  Pb11  1  0.25000000  0.76454338  0.10905861  1
