# generated using pymatgen
data_ErGeIr
_symmetry_space_group_name_H-M   'P 1'
_cell_length_a   4.25547664
_cell_length_b   6.79321042
_cell_length_c   7.55617674
_cell_angle_alpha   90.00000000
_cell_angle_beta   90.00000000
_cell_angle_gamma   90.00000000
_symmetry_Int_Tables_number   1
_chemical_formula_structural   ErGeIr
_chemical_formula_sum   'Er4 Ge4 Ir4'
_cell_volume   218.43658866
_cell_formula_units_Z   4
loop_
 _symmetry_equiv_pos_site_id
 _symmetry_equiv_pos_as_xyz
  1  'x, y, z'
loop_
 _atom_site_type_symbol
 _atom_site_label
 _atom_site_symmetry_multiplicity
 _atom_site_fract_x
 _atom_site_fract_y
 _atom_site_fract_z
 _atom_site_occupancy
  Er  Er0  1  0.75000000  0.49446013  0.19258745  1
  Er  Er1  1  0.25000000  0.00553987  0.69258745  1
  Er  Er2  1  0.75000000  0.99446013  0.30741255  1
  Er  Er3  1  0.25000000  0.50553987  0.80741255  1
  Ge  Ge4  1  0.25000000  0.79061824  0.11169534  1
  Ge  Ge5  1  0.25000000  0.29061824  0.38830466  1
  Ge  Ge6  1  0.75000000  0.20938176  0.88830466  1
  Ge  Ge7  1  0.75000000  0.70938176  0.61169534  1
  Ir  Ir8  1  0.25000000  0.65993392  0.43537850  1
  Ir  Ir9  1  0.25000000  0.15993392  0.06462150  1
  Ir  Ir10  1  0.75000000  0.84006608  0.93537850  1
  Ir  Ir11  1  0.75000000  0.34006608  0.56462150  1
