# generated using pymatgen
data_LuGeRu
_symmetry_space_group_name_H-M   'P 1'
_cell_length_a   4.32786621
_cell_length_b   6.88563351
_cell_length_c   7.15838007
_cell_angle_alpha   90.00000000
_cell_angle_beta   90.00000000
_cell_angle_gamma   90.00000000
_symmetry_Int_Tables_number   1
_chemical_formula_structural   LuGeRu
_chemical_formula_sum   'Lu4 Ge4 Ru4'
_cell_volume   213.32044624
_cell_formula_units_Z   4
loop_
 _symmetry_equiv_pos_site_id
 _symmetry_equiv_pos_as_xyz
  1  'x, y, z'
loop_
 _atom_site_type_symbol
 _atom_site_label
 _atom_site_symmetry_multiplicity
 _atom_site_fract_x
 _atom_site_fract_y
 _atom_site_fract_z
 _atom_site_occupancy
  Lu  Lu0  1  0.25000000  0.98921560  0.19271019  1
  Lu  Lu1  1  0.75000000  0.01078440  0.80728981  1
  Lu  Lu2  1  0.25000000  0.48921560  0.30728981  1
  Lu  Lu3  1  0.75000000  0.51078440  0.69271019  1
  Ge  Ge4  1  0.25000000  0.29411183  0.89166129  1
  Ge  Ge5  1  0.75000000  0.70588817  0.10833871  1
  Ge  Ge6  1  0.25000000  0.79411183  0.60833871  1
  Ge  Ge7  1  0.75000000  0.20588817  0.39166129  1
  Ru  Ru8  1  0.75000000  0.84360598  0.43901272  1
  Ru  Ru9  1  0.25000000  0.15639402  0.56098728  1
  Ru  Ru10  1  0.75000000  0.34360598  0.06098728  1
  Ru  Ru11  1  0.25000000  0.65639402  0.93901272  1
