# generated using pymatgen
data_Ga3B4Pt9
_symmetry_space_group_name_H-M   'P 1'
_cell_length_a   8.72623155
_cell_length_b   8.72625950
_cell_length_c   6.55830020
_cell_angle_alpha   89.99999506
_cell_angle_beta   90.00001250
_cell_angle_gamma   119.99970434
_symmetry_Int_Tables_number   1
_chemical_formula_structural   Ga3B4Pt9
_chemical_formula_sum   'Ga6 B8 Pt18'
_cell_volume   432.49199566
_cell_formula_units_Z   2
loop_
 _symmetry_equiv_pos_site_id
 _symmetry_equiv_pos_as_xyz
  1  'x, y, z'
loop_
 _atom_site_type_symbol
 _atom_site_label
 _atom_site_symmetry_multiplicity
 _atom_site_fract_x
 _atom_site_fract_y
 _atom_site_fract_z
 _atom_site_occupancy
  Ga  Ga0  1  0.49316495  0.05767400  0.75000002  1
  Ga  Ga1  1  0.43550501  0.94233677  0.24999999  1
  Ga  Ga2  1  0.50682611  0.56449707  0.25000023  1
  Ga  Ga3  1  0.56451099  0.50684954  0.74999978  1
  Ga  Ga4  1  0.94232769  0.43548811  0.74999998  1
  Ga  Ga5  1  0.05767855  0.49316323  0.24999996  1
  B  B6  1  0.82021451  -0.00000300  0.50000484  1
  B  B7  1  0.82021459  -0.00000300  -0.00000484  1
  B  B8  1  -0.00000016  0.82021449  0.50000285  1
  B  B9  1  0.17978494  0.17978341  0.50000521  1
  B  B10  1  0.17978498  0.17978340  -0.00000515  1
  B  B11  1  -0.00000030  0.82021445  -0.00000252  1
  B  B12  1  0.66666716  0.33333752  0.24999983  1
  B  B13  1  0.33333213  0.66666659  0.75000021  1
  Pt  Pt14  1  0.81533094  0.54042321  0.47768440  1
  Pt  Pt15  1  0.54042553  0.81532259  0.52232575  1
  Pt  Pt16  1  0.99305646  0.17811089  0.74999995  1
  Pt  Pt17  1  0.27488938  0.45956966  0.52232469  1
  Pt  Pt18  1  0.00693693  0.18505063  0.24999985  1
  Pt  Pt19  1  0.72509485  0.18467164  0.47768044  1
  Pt  Pt20  1  0.81494296  0.82187483  0.25000009  1
  Pt  Pt21  1  0.18467581  0.72510355  0.52232614  1
  Pt  Pt22  1  0.45957864  0.27491130  0.47768688  1
  Pt  Pt23  1  0.81533092  0.54042294  0.02231484  1
  Pt  Pt24  1  0.45957868  0.27491121  0.02231265  1
  Pt  Pt25  1  0.18505240  0.00694584  0.75000017  1
  Pt  Pt26  1  0.17811717  0.99305633  0.25000035  1
  Pt  Pt27  1  0.18467576  0.72510395  0.97767455  1
  Pt  Pt28  1  0.82189247  0.81495361  0.75000009  1
  Pt  Pt29  1  0.72509504  0.18467184  0.02231947  1
  Pt  Pt30  1  0.27488919  0.45956966  0.97767575  1
  Pt  Pt31  1  0.54042572  0.81532272  0.97767454  1
