# generated using pymatgen
data_Nb3PbS6
_symmetry_space_group_name_H-M   'P 1'
_cell_length_a   5.86466643
_cell_length_b   5.86466643
_cell_length_c   14.87636790
_cell_angle_alpha   90.00000000
_cell_angle_beta   90.00000000
_cell_angle_gamma   119.99999131
_symmetry_Int_Tables_number   1
_chemical_formula_structural   Nb3PbS6
_chemical_formula_sum   'Nb6 Pb2 S12'
_cell_volume   443.11271335
_cell_formula_units_Z   2
loop_
 _symmetry_equiv_pos_site_id
 _symmetry_equiv_pos_as_xyz
  1  'x, y, z'
loop_
 _atom_site_type_symbol
 _atom_site_label
 _atom_site_symmetry_multiplicity
 _atom_site_fract_x
 _atom_site_fract_y
 _atom_site_fract_z
 _atom_site_occupancy
  Nb  Nb0  1  -0.00000000  -0.00000000  0.75000000  1
  Nb  Nb1  1  -0.00000000  -0.00000000  0.25000000  1
  Nb  Nb2  1  0.33333300  0.66666700  0.25000000  1
  Nb  Nb3  1  0.66666700  0.33333300  0.75000000  1
  Nb  Nb4  1  0.66666700  0.33333300  0.25000000  1
  Nb  Nb5  1  0.33333300  0.66666700  0.75000000  1
  Pb  Pb6  1  -0.00000000  -0.00000000  -0.00000000  1
  Pb  Pb7  1  -0.00000000  -0.00000000  0.50000000  1
  S  S8  1  0.33602266  0.00000000  0.14566483  1
  S  S9  1  0.00000000  0.33602266  0.14566483  1
  S  S10  1  0.66397734  0.66397734  0.14566483  1
  S  S11  1  0.33602266  0.33602266  0.64566483  1
  S  S12  1  0.66397734  0.66397734  0.35433517  1
  S  S13  1  0.66397734  -0.00000000  0.64566483  1
  S  S14  1  -0.00000000  0.66397734  0.64566483  1
  S  S15  1  -0.00000000  0.66397734  0.85433517  1
  S  S16  1  0.33602266  0.33602266  0.85433517  1
  S  S17  1  0.00000000  0.33602266  0.35433517  1
  S  S18  1  0.33602266  0.00000000  0.35433517  1
  S  S19  1  0.66397734  -0.00000000  0.85433517  1
