# generated using pymatgen
data_HoClO
_symmetry_space_group_name_H-M   'P 1'
_cell_length_a   3.85102199
_cell_length_b   3.85102199
_cell_length_c   6.69220481
_cell_angle_alpha   90.00000000
_cell_angle_beta   90.00000000
_cell_angle_gamma   90.00000000
_symmetry_Int_Tables_number   1
_chemical_formula_structural   HoClO
_chemical_formula_sum   'Ho2 Cl2 O2'
_cell_volume   99.24787591
_cell_formula_units_Z   2
loop_
 _symmetry_equiv_pos_site_id
 _symmetry_equiv_pos_as_xyz
  1  'x, y, z'
loop_
 _atom_site_type_symbol
 _atom_site_label
 _atom_site_symmetry_multiplicity
 _atom_site_fract_x
 _atom_site_fract_y
 _atom_site_fract_z
 _atom_site_occupancy
  Ho  Ho0  1  0.75000000  0.75000000  0.83399265  1
  Ho  Ho1  1  0.25000000  0.25000000  0.16600735  1
  Cl  Cl2  1  0.25000000  0.25000000  0.63054881  1
  Cl  Cl3  1  0.75000000  0.75000000  0.36945119  1
  O  O4  1  0.75000000  0.25000000  0.00000000  1
  O  O5  1  0.25000000  0.75000000  0.00000000  1
