# generated using pymatgen
data_Dy(NiGe)2
_symmetry_space_group_name_H-M   'P 1'
_cell_length_a   4.03567998
_cell_length_b   4.03567943
_cell_length_c   5.62201150
_cell_angle_alpha   111.03374606
_cell_angle_beta   111.03372435
_cell_angle_gamma   90.00000377
_symmetry_Int_Tables_number   1
_chemical_formula_structural   Dy(NiGe)2
_chemical_formula_sum   'Dy1 Ni2 Ge2'
_cell_volume   78.89170117
_cell_formula_units_Z   1
loop_
 _symmetry_equiv_pos_site_id
 _symmetry_equiv_pos_as_xyz
  1  'x, y, z'
loop_
 _atom_site_type_symbol
 _atom_site_label
 _atom_site_symmetry_multiplicity
 _atom_site_fract_x
 _atom_site_fract_y
 _atom_site_fract_z
 _atom_site_occupancy
  Dy  Dy0  1  0.00000000  0.00000000  0.00000000  1
  Ni  Ni1  1  0.75000000  0.25000000  0.50000000  1
  Ni  Ni2  1  0.25000000  0.75000000  0.50000000  1
  Ge  Ge3  1  0.62882472  0.62882472  0.25764845  1
  Ge  Ge4  1  0.37117528  0.37117528  0.74235155  1
