# generated using pymatgen
data_TmNiGe
_symmetry_space_group_name_H-M   'P 1'
_cell_length_a   4.16032654
_cell_length_b   6.76964280
_cell_length_c   7.18145722
_cell_angle_alpha   90.00000000
_cell_angle_beta   90.00000000
_cell_angle_gamma   90.00000000
_symmetry_Int_Tables_number   1
_chemical_formula_structural   TmNiGe
_chemical_formula_sum   'Tm4 Ni4 Ge4'
_cell_volume   202.25801971
_cell_formula_units_Z   4
loop_
 _symmetry_equiv_pos_site_id
 _symmetry_equiv_pos_as_xyz
  1  'x, y, z'
loop_
 _atom_site_type_symbol
 _atom_site_label
 _atom_site_symmetry_multiplicity
 _atom_site_fract_x
 _atom_site_fract_y
 _atom_site_fract_z
 _atom_site_occupancy
  Tm  Tm0  1  0.25000000  0.50705115  0.29229077  1
  Tm  Tm1  1  0.25000000  0.00705115  0.20770923  1
  Tm  Tm2  1  0.75000000  0.99294885  0.79229077  1
  Tm  Tm3  1  0.75000000  0.49294885  0.70770923  1
  Ni  Ni4  1  0.75000000  0.19162745  0.41880896  1
  Ni  Ni5  1  0.25000000  0.80837255  0.58119104  1
  Ni  Ni6  1  0.75000000  0.69162745  0.08119104  1
  Ni  Ni7  1  0.25000000  0.30837255  0.91880896  1
  Ge  Ge8  1  0.75000000  0.30083195  0.08928788  1
  Ge  Ge9  1  0.25000000  0.19916805  0.58928788  1
  Ge  Ge10  1  0.25000000  0.69916805  0.91071212  1
  Ge  Ge11  1  0.75000000  0.80083195  0.41071212  1
