# generated using pymatgen
data_RbClO4
_symmetry_space_group_name_H-M   'P 1'
_cell_length_a   5.75550407
_cell_length_b   7.45068550
_cell_length_c   9.20562458
_cell_angle_alpha   90.00000000
_cell_angle_beta   90.00000000
_cell_angle_gamma   90.00000000
_symmetry_Int_Tables_number   1
_chemical_formula_structural   RbClO4
_chemical_formula_sum   'Rb4 Cl4 O16'
_cell_volume   394.75974239
_cell_formula_units_Z   4
loop_
 _symmetry_equiv_pos_site_id
 _symmetry_equiv_pos_as_xyz
  1  'x, y, z'
loop_
 _atom_site_type_symbol
 _atom_site_label
 _atom_site_symmetry_multiplicity
 _atom_site_fract_x
 _atom_site_fract_y
 _atom_site_fract_z
 _atom_site_occupancy
  Rb  Rb0  1  0.25000000  0.33833951  0.68316590  1
  Rb  Rb1  1  0.75000000  0.66166049  0.31683410  1
  Rb  Rb2  1  0.75000000  0.83833951  0.81683410  1
  Rb  Rb3  1  0.25000000  0.16166049  0.18316590  1
  Cl  Cl4  1  0.25000000  0.80823258  0.56615038  1
  Cl  Cl5  1  0.75000000  0.19176742  0.43384962  1
  Cl  Cl6  1  0.75000000  0.30823258  0.93384962  1
  Cl  Cl7  1  0.25000000  0.69176742  0.06615038  1
  O  O8  1  0.54534871  0.30434144  0.42104850  1
  O  O9  1  0.04534871  0.69565856  0.57895150  1
  O  O10  1  0.45465129  0.80434144  0.07895150  1
  O  O11  1  0.95465129  0.19565856  0.92104850  1
  O  O12  1  0.45465129  0.69565856  0.57895150  1
  O  O13  1  0.95465129  0.30434144  0.42104850  1
  O  O14  1  0.54534871  0.19565856  0.92104850  1
  O  O15  1  0.04534871  0.80434144  0.07895150  1
  O  O16  1  0.25000000  0.60374949  0.92706804  1
  O  O17  1  0.75000000  0.39625051  0.07293196  1
  O  O18  1  0.75000000  0.10374949  0.57293196  1
  O  O19  1  0.25000000  0.89625051  0.42706804  1
  O  O20  1  0.25000000  0.56145591  0.18230555  1
  O  O21  1  0.75000000  0.43854409  0.81769445  1
  O  O22  1  0.75000000  0.06145591  0.31769445  1
  O  O23  1  0.25000000  0.93854409  0.68230555  1
