# generated using pymatgen
data_NaFeCl4
_symmetry_space_group_name_H-M   'P 1'
_cell_length_a   6.21361997
_cell_length_b   9.81244492
_cell_length_c   10.19721012
_cell_angle_alpha   90.00000000
_cell_angle_beta   90.00000000
_cell_angle_gamma   90.00000000
_symmetry_Int_Tables_number   1
_chemical_formula_structural   NaFeCl4
_chemical_formula_sum   'Na4 Fe4 Cl16'
_cell_volume   621.73209661
_cell_formula_units_Z   4
loop_
 _symmetry_equiv_pos_site_id
 _symmetry_equiv_pos_as_xyz
  1  'x, y, z'
loop_
 _atom_site_type_symbol
 _atom_site_label
 _atom_site_symmetry_multiplicity
 _atom_site_fract_x
 _atom_site_fract_y
 _atom_site_fract_z
 _atom_site_occupancy
  Na  Na0  1  0.06409331  0.53537062  0.63633462  1
  Na  Na1  1  0.43590669  0.46462938  0.13633462  1
  Na  Na2  1  0.93590669  0.03537062  0.86366538  1
  Na  Na3  1  0.56409331  0.96462938  0.36366538  1
  Fe  Fe4  1  0.96184089  0.73971920  0.21159649  1
  Fe  Fe5  1  0.46184089  0.76028080  0.78840351  1
  Fe  Fe6  1  0.03815911  0.23971920  0.28840351  1
  Fe  Fe7  1  0.53815911  0.26028080  0.71159649  1
  Cl  Cl8  1  0.32511681  0.57457149  0.87912172  1
  Cl  Cl9  1  0.17488319  0.42542851  0.37912172  1
  Cl  Cl10  1  0.67488319  0.07457149  0.62087828  1
  Cl  Cl11  1  0.82511681  0.92542851  0.12087828  1
  Cl  Cl12  1  0.18302307  0.25657402  0.71510021  1
  Cl  Cl13  1  0.68302307  0.24342598  0.28489979  1
  Cl  Cl14  1  0.81697693  0.75657402  0.78489979  1
  Cl  Cl15  1  0.31697693  0.74342598  0.21510021  1
  Cl  Cl16  1  0.64580362  0.43855384  0.59993331  1
  Cl  Cl17  1  0.14580362  0.06144616  0.40006669  1
  Cl  Cl18  1  0.35419638  0.93855384  0.90006669  1
  Cl  Cl19  1  0.85419638  0.56144616  0.09993331  1
  Cl  Cl20  1  0.82575780  0.73432055  0.41061511  1
  Cl  Cl21  1  0.32575780  0.76567945  0.58938489  1
  Cl  Cl22  1  0.17424220  0.23432055  0.08938489  1
  Cl  Cl23  1  0.67424220  0.26567945  0.91061511  1
