# generated using pymatgen
data_EuInPt
_symmetry_space_group_name_H-M   'P 1'
_cell_length_a   4.48307334
_cell_length_b   7.43163465
_cell_length_c   8.46957144
_cell_angle_alpha   89.99951815
_cell_angle_beta   89.99999738
_cell_angle_gamma   89.99999895
_symmetry_Int_Tables_number   1
_chemical_formula_structural   EuInPt
_chemical_formula_sum   'Eu4 In4 Pt4'
_cell_volume   282.17701192
_cell_formula_units_Z   4
loop_
 _symmetry_equiv_pos_site_id
 _symmetry_equiv_pos_as_xyz
  1  'x, y, z'
loop_
 _atom_site_type_symbol
 _atom_site_label
 _atom_site_symmetry_multiplicity
 _atom_site_fract_x
 _atom_site_fract_y
 _atom_site_fract_z
 _atom_site_occupancy
  Eu  Eu0  1  0.75000005  0.46707443  0.17884473  1
  Eu  Eu1  1  0.25000010  0.03291493  0.67887703  1
  Eu  Eu2  1  0.74999993  0.96696391  0.32120182  1
  Eu  Eu3  1  0.25000006  0.53304176  0.82105765  1
  In  In4  1  0.24999997  0.64633851  0.43501232  1
  In  In5  1  0.24999992  0.14630296  0.06502409  1
  In  In6  1  0.74999999  0.35372312  0.56509725  1
  In  In7  1  0.75000005  0.85365331  0.93486697  1
  Pt  Pt8  1  0.25000005  0.76954703  0.12208000  1
  Pt  Pt9  1  0.24999989  0.26957474  0.37796542  1
  Pt  Pt10  1  0.75000005  0.73042759  0.62210856  1
  Pt  Pt11  1  0.74999993  0.23043870  0.87786417  1
