# generated using pymatgen
data_Np(Al2Fe)4
_symmetry_space_group_name_H-M   'P 1'
_cell_length_a   6.67251209
_cell_length_b   6.67251209
_cell_length_c   6.67251209
_cell_angle_alpha   98.01214627
_cell_angle_beta   98.01214627
_cell_angle_gamma   136.15645146
_symmetry_Int_Tables_number   1
_chemical_formula_structural   Np(Al2Fe)4
_chemical_formula_sum   'Np1 Al8 Fe4'
_cell_volume   190.90308931
_cell_formula_units_Z   1
loop_
 _symmetry_equiv_pos_site_id
 _symmetry_equiv_pos_as_xyz
  1  'x, y, z'
loop_
 _atom_site_type_symbol
 _atom_site_label
 _atom_site_symmetry_multiplicity
 _atom_site_fract_x
 _atom_site_fract_y
 _atom_site_fract_z
 _atom_site_occupancy
  Np  Np0  1  -0.00000000  0.00000000  0.00000000  1
  Al  Al1  1  0.50000000  0.72528253  0.22528253  1
  Al  Al2  1  0.27471747  0.50000000  0.77471747  1
  Al  Al3  1  0.72528253  0.50000000  0.22528253  1
  Al  Al4  1  0.50000000  0.27471747  0.77471747  1
  Al  Al5  1  0.00000000  0.65706296  0.65706296  1
  Al  Al6  1  0.00000000  0.34293704  0.34293704  1
  Al  Al7  1  0.65706296  0.00000000  0.65706296  1
  Al  Al8  1  0.34293704  0.00000000  0.34293704  1
  Fe  Fe9  1  0.50000000  0.00000000  0.00000000  1
  Fe  Fe10  1  0.50000000  0.50000000  0.50000000  1
  Fe  Fe11  1  -0.00000000  0.00000000  0.50000000  1
  Fe  Fe12  1  -0.00000000  0.50000000  0.00000000  1
