# generated using pymatgen
data_Eu2SO2
_symmetry_space_group_name_H-M   'P 1'
_cell_length_a   3.90488960
_cell_length_b   3.90487835
_cell_length_c   6.74948379
_cell_angle_alpha   89.99992685
_cell_angle_beta   89.99972867
_cell_angle_gamma   119.99970456
_symmetry_Int_Tables_number   1
_chemical_formula_structural   Eu2SO2
_chemical_formula_sum   'Eu2 S1 O2'
_cell_volume   89.12894200
_cell_formula_units_Z   1
loop_
 _symmetry_equiv_pos_site_id
 _symmetry_equiv_pos_as_xyz
  1  'x, y, z'
loop_
 _atom_site_type_symbol
 _atom_site_label
 _atom_site_symmetry_multiplicity
 _atom_site_fract_x
 _atom_site_fract_y
 _atom_site_fract_z
 _atom_site_occupancy
  Eu  Eu0  1  0.33333885  0.66666932  0.28213698  1
  Eu  Eu1  1  0.66666115  0.33333068  0.71786302  1
  S  S2  1  -0.00000000  0.00000000  0.00000000  1
  O  O3  1  0.33333144  0.66666524  0.63017276  1
  O  O4  1  0.66666856  0.33333476  0.36982724  1
