# generated using pymatgen
data_EuGePd
_symmetry_space_group_name_H-M   'P 1'
_cell_length_a   6.04011073
_cell_length_b   6.18013125
_cell_length_c   7.56001140
_cell_angle_alpha   109.73857647
_cell_angle_beta   89.99971522
_cell_angle_gamma   89.99835747
_symmetry_Int_Tables_number   1
_chemical_formula_structural   EuGePd
_chemical_formula_sum   'Eu4 Ge4 Pd4'
_cell_volume   265.62379598
_cell_formula_units_Z   4
loop_
 _symmetry_equiv_pos_site_id
 _symmetry_equiv_pos_as_xyz
  1  'x, y, z'
loop_
 _atom_site_type_symbol
 _atom_site_label
 _atom_site_symmetry_multiplicity
 _atom_site_fract_x
 _atom_site_fract_y
 _atom_site_fract_z
 _atom_site_occupancy
  Eu  Eu0  1  0.63755168  0.17790794  0.37891101  1
  Eu  Eu1  1  0.13753693  0.32208987  0.12107234  1
  Eu  Eu2  1  0.36244832  0.82209206  0.62108899  1
  Eu  Eu3  1  0.86246307  0.67791013  0.87892766  1
  Ge  Ge4  1  0.63851840  0.18429404  0.94962252  1
  Ge  Ge5  1  0.13852413  0.31570779  0.55037814  1
  Ge  Ge6  1  0.36148160  0.81570596  0.05037748  1
  Ge  Ge7  1  0.86147587  0.68429221  0.44962186  1
  Pd  Pd8  1  0.89831103  0.07861691  0.68593592  1
  Pd  Pd9  1  0.39828227  0.42137552  0.81405901  1
  Pd  Pd10  1  0.10168897  0.92138409  0.31406408  1
  Pd  Pd11  1  0.60171773  0.57862348  0.18594099  1
