# generated using pymatgen
data_TmGeRu
_symmetry_space_group_name_H-M   'P 1'
_cell_length_a   4.35959824
_cell_length_b   6.93634066
_cell_length_c   7.16151792
_cell_angle_alpha   90.00000000
_cell_angle_beta   90.00000000
_cell_angle_gamma   90.00000000
_symmetry_Int_Tables_number   1
_chemical_formula_structural   TmGeRu
_chemical_formula_sum   'Tm4 Ge4 Ru4'
_cell_volume   216.56185648
_cell_formula_units_Z   4
loop_
 _symmetry_equiv_pos_site_id
 _symmetry_equiv_pos_as_xyz
  1  'x, y, z'
loop_
 _atom_site_type_symbol
 _atom_site_label
 _atom_site_symmetry_multiplicity
 _atom_site_fract_x
 _atom_site_fract_y
 _atom_site_fract_z
 _atom_site_occupancy
  Tm  Tm0  1  0.25000000  0.98692339  0.19260932  1
  Tm  Tm1  1  0.75000000  0.01307661  0.80739068  1
  Tm  Tm2  1  0.25000000  0.48692339  0.30739068  1
  Tm  Tm3  1  0.75000000  0.51307661  0.69260932  1
  Ge  Ge4  1  0.25000000  0.29552539  0.89256452  1
  Ge  Ge5  1  0.75000000  0.70447461  0.10743548  1
  Ge  Ge6  1  0.25000000  0.79552539  0.60743548  1
  Ge  Ge7  1  0.75000000  0.20447461  0.39256452  1
  Ru  Ru8  1  0.75000000  0.84485837  0.43780343  1
  Ru  Ru9  1  0.25000000  0.15514163  0.56219657  1
  Ru  Ru10  1  0.75000000  0.34485837  0.06219657  1
  Ru  Ru11  1  0.25000000  0.65514163  0.93780343  1
