# generated using pymatgen
data_Ca3Al2Ge3
_symmetry_space_group_name_H-M   'P 1'
_cell_length_a   4.33626495
_cell_length_b   11.39214122
_cell_length_c   14.78043415
_cell_angle_alpha   90.00000000
_cell_angle_beta   90.00000000
_cell_angle_gamma   90.00000000
_symmetry_Int_Tables_number   1
_chemical_formula_structural   Ca3Al2Ge3
_chemical_formula_sum   'Ca12 Al8 Ge12'
_cell_volume   730.14373150
_cell_formula_units_Z   4
loop_
 _symmetry_equiv_pos_site_id
 _symmetry_equiv_pos_as_xyz
  1  'x, y, z'
loop_
 _atom_site_type_symbol
 _atom_site_label
 _atom_site_symmetry_multiplicity
 _atom_site_fract_x
 _atom_site_fract_y
 _atom_site_fract_z
 _atom_site_occupancy
  Ca  Ca0  1  0.25000000  0.89433593  0.56630771  1
  Ca  Ca1  1  0.75000000  0.10566407  0.43369229  1
  Ca  Ca2  1  0.25000000  0.39433593  0.93369229  1
  Ca  Ca3  1  0.75000000  0.60566407  0.06630771  1
  Ca  Ca4  1  0.25000000  0.60566224  0.43779233  1
  Ca  Ca5  1  0.75000000  0.39433776  0.56220767  1
  Ca  Ca6  1  0.25000000  0.10566224  0.06220767  1
  Ca  Ca7  1  0.75000000  0.89433776  0.93779233  1
  Ca  Ca8  1  0.75000000  0.37752092  0.29696191  1
  Ca  Ca9  1  0.25000000  0.62247908  0.70303809  1
  Ca  Ca10  1  0.75000000  0.87752092  0.20303809  1
  Ca  Ca11  1  0.25000000  0.12247908  0.79696191  1
  Al  Al12  1  0.75000000  0.86142475  0.70937843  1
  Al  Al13  1  0.25000000  0.13857525  0.29062157  1
  Al  Al14  1  0.75000000  0.36142475  0.79062157  1
  Al  Al15  1  0.25000000  0.63857525  0.20937843  1
  Al  Al16  1  0.25000000  0.68417685  0.91096408  1
  Al  Al17  1  0.75000000  0.31582315  0.08903592  1
  Al  Al18  1  0.25000000  0.18417685  0.58903592  1
  Al  Al19  1  0.75000000  0.81582315  0.41096408  1
  Ge  Ge20  1  0.25000000  0.92893508  0.36335077  1
  Ge  Ge21  1  0.75000000  0.07106492  0.63664923  1
  Ge  Ge22  1  0.25000000  0.42893508  0.13664923  1
  Ge  Ge23  1  0.75000000  0.57106492  0.86335077  1
  Ge  Ge24  1  0.25000000  0.85951902  0.79922177  1
  Ge  Ge25  1  0.75000000  0.14048098  0.20077823  1
  Ge  Ge26  1  0.25000000  0.35951902  0.70077823  1
  Ge  Ge27  1  0.75000000  0.64048098  0.29922177  1
  Ge  Ge28  1  0.25000000  0.29916381  0.43389844  1
  Ge  Ge29  1  0.75000000  0.70083619  0.56610156  1
  Ge  Ge30  1  0.25000000  0.79916381  0.06610156  1
  Ge  Ge31  1  0.75000000  0.20083619  0.93389844  1
