# generated using pymatgen
data_Yb2InPd2
_symmetry_space_group_name_H-M   'P 1'
_cell_length_a   7.66973020
_cell_length_b   7.66973020
_cell_length_c   3.55163649
_cell_angle_alpha   90.00000000
_cell_angle_beta   90.00000000
_cell_angle_gamma   90.00000000
_symmetry_Int_Tables_number   1
_chemical_formula_structural   Yb2InPd2
_chemical_formula_sum   'Yb4 In2 Pd4'
_cell_volume   208.92416888
_cell_formula_units_Z   2
loop_
 _symmetry_equiv_pos_site_id
 _symmetry_equiv_pos_as_xyz
  1  'x, y, z'
loop_
 _atom_site_type_symbol
 _atom_site_label
 _atom_site_symmetry_multiplicity
 _atom_site_fract_x
 _atom_site_fract_y
 _atom_site_fract_z
 _atom_site_occupancy
  Yb  Yb0  1  0.32829626  0.82829626  0.50000000  1
  Yb  Yb1  1  0.82829626  0.67170374  0.50000000  1
  Yb  Yb2  1  0.17170374  0.32829626  0.50000000  1
  Yb  Yb3  1  0.67170374  0.17170374  0.50000000  1
  In  In4  1  0.00000000  0.00000000  0.00000000  1
  In  In5  1  0.50000000  0.50000000  0.00000000  1
  Pd  Pd6  1  0.37132554  0.12867446  0.00000000  1
  Pd  Pd7  1  0.87132554  0.37132554  0.00000000  1
  Pd  Pd8  1  0.12867446  0.62867446  0.00000000  1
  Pd  Pd9  1  0.62867446  0.87132554  0.00000000  1
