# generated using pymatgen
data_FeCo2Ge
_symmetry_space_group_name_H-M   'P 1'
_cell_length_a   4.03272557
_cell_length_b   4.03272465
_cell_length_c   4.03272536
_cell_angle_alpha   60.00000255
_cell_angle_beta   60.00001027
_cell_angle_gamma   59.99998942
_symmetry_Int_Tables_number   1
_chemical_formula_structural   FeCo2Ge
_chemical_formula_sum   'Fe1 Co2 Ge1'
_cell_volume   46.37467667
_cell_formula_units_Z   1
loop_
 _symmetry_equiv_pos_site_id
 _symmetry_equiv_pos_as_xyz
  1  'x, y, z'
loop_
 _atom_site_type_symbol
 _atom_site_label
 _atom_site_symmetry_multiplicity
 _atom_site_fract_x
 _atom_site_fract_y
 _atom_site_fract_z
 _atom_site_occupancy
  Fe  Fe0  1  0.00000000  -0.00000000  0.00000000  1
  Co  Co1  1  0.25000000  0.25000000  0.25000000  1
  Co  Co2  1  0.75000000  0.75000000  0.75000000  1
  Ge  Ge3  1  0.50000000  0.50000000  0.50000000  1
