# generated using pymatgen
data_TbSbRh
_symmetry_space_group_name_H-M   'P 1'
_cell_length_a   4.55490416
_cell_length_b   7.18579450
_cell_length_c   7.79482228
_cell_angle_alpha   90.00000000
_cell_angle_beta   90.00000000
_cell_angle_gamma   90.00000000
_symmetry_Int_Tables_number   1
_chemical_formula_structural   TbSbRh
_chemical_formula_sum   'Tb4 Sb4 Rh4'
_cell_volume   255.12925113
_cell_formula_units_Z   4
loop_
 _symmetry_equiv_pos_site_id
 _symmetry_equiv_pos_as_xyz
  1  'x, y, z'
loop_
 _atom_site_type_symbol
 _atom_site_label
 _atom_site_symmetry_multiplicity
 _atom_site_fract_x
 _atom_site_fract_y
 _atom_site_fract_z
 _atom_site_occupancy
  Tb  Tb0  1  0.25000000  0.51066459  0.79781918  1
  Tb  Tb1  1  0.75000000  0.48933541  0.20218082  1
  Tb  Tb2  1  0.25000000  0.01066459  0.70218082  1
  Tb  Tb3  1  0.75000000  0.98933541  0.29781918  1
  Sb  Sb4  1  0.25000000  0.19382117  0.09088746  1
  Sb  Sb5  1  0.75000000  0.30617883  0.59088746  1
  Sb  Sb6  1  0.25000000  0.69382117  0.40911254  1
  Sb  Sb7  1  0.75000000  0.80617883  0.90911254  1
  Rh  Rh8  1  0.75000000  0.19484348  0.91822450  1
  Rh  Rh9  1  0.25000000  0.30515652  0.41822450  1
  Rh  Rh10  1  0.75000000  0.69484348  0.58177550  1
  Rh  Rh11  1  0.25000000  0.80515652  0.08177550  1
