# generated using pymatgen
data_PuGa3
_symmetry_space_group_name_H-M   'P 1'
_cell_length_a   6.29104030
_cell_length_b   6.29105494
_cell_length_c   4.53157299
_cell_angle_alpha   90.00000000
_cell_angle_beta   90.00000000
_cell_angle_gamma   120.00000571
_symmetry_Int_Tables_number   1
_chemical_formula_structural   PuGa3
_chemical_formula_sum   'Pu2 Ga6'
_cell_volume   155.31933837
_cell_formula_units_Z   2
loop_
 _symmetry_equiv_pos_site_id
 _symmetry_equiv_pos_as_xyz
  1  'x, y, z'
loop_
 _atom_site_type_symbol
 _atom_site_label
 _atom_site_symmetry_multiplicity
 _atom_site_fract_x
 _atom_site_fract_y
 _atom_site_fract_z
 _atom_site_occupancy
  Pu  Pu0  1  0.66666600  0.33333300  0.75000000  1
  Pu  Pu1  1  0.33333400  0.66666700  0.25000000  1
  Ga  Ga2  1  0.14658766  0.85341234  0.75000000  1
  Ga  Ga3  1  0.29281520  0.14640760  0.25000000  1
  Ga  Ga4  1  0.85359240  0.14640660  0.25000000  1
  Ga  Ga5  1  0.70682369  0.85341134  0.75000000  1
  Ga  Ga6  1  0.14658866  0.29317531  0.75000000  1
  Ga  Ga7  1  0.85359240  0.70718580  0.25000000  1
