# generated using pymatgen
data_DyCuGe
_symmetry_space_group_name_H-M   'P 1'
_cell_length_a   4.23208665
_cell_length_b   4.23208665
_cell_length_c   7.20324206
_cell_angle_alpha   90.00000000
_cell_angle_beta   90.00000000
_cell_angle_gamma   119.99999951
_symmetry_Int_Tables_number   1
_chemical_formula_structural   DyCuGe
_chemical_formula_sum   'Dy2 Cu2 Ge2'
_cell_volume   111.72947163
_cell_formula_units_Z   2
loop_
 _symmetry_equiv_pos_site_id
 _symmetry_equiv_pos_as_xyz
  1  'x, y, z'
loop_
 _atom_site_type_symbol
 _atom_site_label
 _atom_site_symmetry_multiplicity
 _atom_site_fract_x
 _atom_site_fract_y
 _atom_site_fract_z
 _atom_site_occupancy
  Dy  Dy0  1  -0.00000000  -0.00000000  0.76068718  1
  Dy  Dy1  1  -0.00000000  -0.00000000  0.26068718  1
  Cu  Cu2  1  0.66666700  0.33333300  0.54681912  1
  Cu  Cu3  1  0.33333300  0.66666700  0.04681912  1
  Ge  Ge4  1  0.33333300  0.66666700  0.48489370  1
  Ge  Ge5  1  0.66666700  0.33333300  0.98489370  1
