# generated using pymatgen
data_LaIn2Pd
_symmetry_space_group_name_H-M   'P 1'
_cell_length_a   5.90787834
_cell_length_b   5.90787834
_cell_length_c   7.52364576
_cell_angle_alpha   90.00001733
_cell_angle_beta   89.99998267
_cell_angle_gamma   133.32917634
_symmetry_Int_Tables_number   1
_chemical_formula_structural   LaIn2Pd
_chemical_formula_sum   'La2 In4 Pd2'
_cell_volume   191.01994287
_cell_formula_units_Z   2
loop_
 _symmetry_equiv_pos_site_id
 _symmetry_equiv_pos_as_xyz
  1  'x, y, z'
loop_
 _atom_site_type_symbol
 _atom_site_label
 _atom_site_symmetry_multiplicity
 _atom_site_fract_x
 _atom_site_fract_y
 _atom_site_fract_z
 _atom_site_occupancy
  La  La0  1  0.42391695  0.57608305  0.25000000  1
  La  La1  1  0.57608305  0.42391695  0.75000000  1
  In  In2  1  0.86002485  0.13997515  0.55149278  1
  In  In3  1  0.13997515  0.86002485  0.44850722  1
  In  In4  1  0.86002485  0.13997515  0.94850722  1
  In  In5  1  0.13997515  0.86002485  0.05149278  1
  Pd  Pd6  1  0.29386650  0.70613350  0.75000000  1
  Pd  Pd7  1  0.70613350  0.29386650  0.25000000  1
