# generated using pymatgen
data_PuI3
_symmetry_space_group_name_H-M   'P 1'
_cell_length_a   7.71509807
_cell_length_b   7.71509807
_cell_length_c   9.97541906
_cell_angle_alpha   90.00000000
_cell_angle_beta   90.00000000
_cell_angle_gamma   147.71457006
_symmetry_Int_Tables_number   1
_chemical_formula_structural   PuI3
_chemical_formula_sum   'Pu2 I6'
_cell_volume   317.15168848
_cell_formula_units_Z   2
loop_
 _symmetry_equiv_pos_site_id
 _symmetry_equiv_pos_as_xyz
  1  'x, y, z'
loop_
 _atom_site_type_symbol
 _atom_site_label
 _atom_site_symmetry_multiplicity
 _atom_site_fract_x
 _atom_site_fract_y
 _atom_site_fract_z
 _atom_site_occupancy
  Pu  Pu0  1  0.26481038  0.73518962  0.25000000  1
  Pu  Pu1  1  0.73518962  0.26481038  0.75000000  1
  I  I2  1  0.65301186  0.34698814  0.43094932  1
  I  I3  1  0.34698814  0.65301186  0.56905068  1
  I  I4  1  0.08186322  0.91813678  0.75000000  1
  I  I5  1  0.91813678  0.08186322  0.25000000  1
  I  I6  1  0.65301186  0.34698814  0.06905068  1
  I  I7  1  0.34698814  0.65301186  0.93094932  1
