# generated using pymatgen
data_NiBr2
_symmetry_space_group_name_H-M   'P 1'
_cell_length_a   6.86989775
_cell_length_b   6.86989746
_cell_length_c   6.86989792
_cell_angle_alpha   30.94731147
_cell_angle_beta   30.94730789
_cell_angle_gamma   30.94732150
_symmetry_Int_Tables_number   1
_chemical_formula_structural   NiBr2
_chemical_formula_sum   'Ni1 Br2'
_cell_volume   76.05793594
_cell_formula_units_Z   1
loop_
 _symmetry_equiv_pos_site_id
 _symmetry_equiv_pos_as_xyz
  1  'x, y, z'
loop_
 _atom_site_type_symbol
 _atom_site_label
 _atom_site_symmetry_multiplicity
 _atom_site_fract_x
 _atom_site_fract_y
 _atom_site_fract_z
 _atom_site_occupancy
  Ni  Ni0  1  -0.00000000  -0.00000000  0.00000000  1
  Br  Br1  1  0.26110778  0.26110778  0.26110778  1
  Br  Br2  1  0.73889222  0.73889222  0.73889222  1
