# generated using pymatgen
data_Na2ZrF6
_symmetry_space_group_name_H-M   'P 1'
_cell_length_a   5.34929956
_cell_length_b   5.51008804
_cell_length_c   15.94996041
_cell_angle_alpha   84.78943110
_cell_angle_beta   90.00000000
_cell_angle_gamma   90.00000000
_symmetry_Int_Tables_number   1
_chemical_formula_structural   Na2ZrF6
_chemical_formula_sum   'Na8 Zr4 F24'
_cell_volume   468.18413949
_cell_formula_units_Z   4
loop_
 _symmetry_equiv_pos_site_id
 _symmetry_equiv_pos_as_xyz
  1  'x, y, z'
loop_
 _atom_site_type_symbol
 _atom_site_label
 _atom_site_symmetry_multiplicity
 _atom_site_fract_x
 _atom_site_fract_y
 _atom_site_fract_z
 _atom_site_occupancy
  Na  Na0  1  0.49455017  0.32935437  0.59305011  1
  Na  Na1  1  -0.00544983  0.67064563  0.90694989  1
  Na  Na2  1  0.50544983  0.67064563  0.40694989  1
  Na  Na3  1  0.00544983  0.32935437  0.09305011  1
  Na  Na4  1  0.46526590  0.24329189  0.25258625  1
  Na  Na5  1  0.96526590  0.75670811  0.24741375  1
  Na  Na6  1  0.53473410  0.75670811  0.74741375  1
  Na  Na7  1  0.03473410  0.24329189  0.75258625  1
  Zr  Zr8  1  0.54941994  0.17694512  0.90093729  1
  Zr  Zr9  1  0.04941994  0.82305488  0.59906271  1
  Zr  Zr10  1  0.45058006  0.82305488  0.09906271  1
  Zr  Zr11  1  0.95058006  0.17694512  0.40093729  1
  F  F12  1  0.82439113  0.86726990  0.48722892  1
  F  F13  1  0.32439113  0.13273010  0.01277108  1
  F  F14  1  0.17560887  0.13273010  0.51277108  1
  F  F15  1  0.67560887  0.86726990  0.98722892  1
  F  F16  1  0.77804432  0.43663134  0.31844135  1
  F  F17  1  0.27804432  0.56336866  0.18155865  1
  F  F18  1  0.22195568  0.56336866  0.68155865  1
  F  F19  1  0.72195568  0.43663134  0.81844135  1
  F  F20  1  0.73621958  0.60335721  0.13787282  1
  F  F21  1  0.23621958  0.39664279  0.36212718  1
  F  F22  1  0.26378042  0.39664279  0.86212718  1
  F  F23  1  0.76378042  0.60335721  0.63787282  1
  F  F24  1  0.28647829  0.02042252  0.66820783  1
  F  F25  1  0.78647829  0.97957748  0.83179217  1
  F  F26  1  0.71352171  0.97957748  0.33179217  1
  F  F27  1  0.21352171  0.02042252  0.16820783  1
  F  F28  1  0.81239868  0.06607811  0.64805019  1
  F  F29  1  0.31239868  0.93392189  0.85194981  1
  F  F30  1  0.18760132  0.93392189  0.35194981  1
  F  F31  1  0.68760132  0.06607811  0.14805019  1
  F  F32  1  0.77369926  0.34749134  0.97789207  1
  F  F33  1  0.27369926  0.65250866  0.52210793  1
  F  F34  1  0.22630074  0.65250866  0.02210793  1
  F  F35  1  0.72630074  0.34749134  0.47789207  1
