# generated using pymatgen
data_Er(ClO4)3
_symmetry_space_group_name_H-M   'P 1'
_cell_length_a   9.18076046
_cell_length_b   9.18084485
_cell_length_c   5.54012720
_cell_angle_alpha   89.99999105
_cell_angle_beta   89.99999601
_cell_angle_gamma   120.00087215
_symmetry_Int_Tables_number   1
_chemical_formula_structural   Er(ClO4)3
_chemical_formula_sum   'Er2 Cl6 O24'
_cell_volume   404.39693516
_cell_formula_units_Z   2
loop_
 _symmetry_equiv_pos_site_id
 _symmetry_equiv_pos_as_xyz
  1  'x, y, z'
loop_
 _atom_site_type_symbol
 _atom_site_label
 _atom_site_symmetry_multiplicity
 _atom_site_fract_x
 _atom_site_fract_y
 _atom_site_fract_z
 _atom_site_occupancy
  Er  Er0  1  0.33333526  0.66665337  0.74992434  1
  Er  Er1  1  0.66668810  0.33335693  0.25001375  1
  Cl  Cl2  1  0.70639001  0.61085320  0.75000838  1
  Cl  Cl3  1  0.09554206  0.70638555  0.24999074  1
  Cl  Cl4  1  0.61084379  0.90445354  0.24998835  1
  Cl  Cl5  1  0.38915873  0.09554986  0.75000758  1
  Cl  Cl6  1  0.90445035  0.29361217  0.75000865  1
  Cl  Cl7  1  0.29361184  0.38915177  0.24998924  1
  O  O8  1  0.80690650  0.78628859  0.75000791  1
  O  O9  1  0.02063376  0.80691356  0.25000324  1
  O  O10  1  0.78628287  0.97936779  0.24999351  1
  O  O11  1  0.21372240  0.02063846  0.75000896  1
  O  O12  1  0.97935904  0.19307801  0.75000730  1
  O  O13  1  0.19309110  0.21371445  0.24999531  1
  O  O14  1  0.79628755  0.25562613  0.53943346  1
  O  O15  1  0.54065775  0.79628584  0.03942389  1
  O  O16  1  0.47169211  0.44677301  0.25000422  1
  O  O17  1  0.02493211  0.47168568  0.75000752  1
  O  O18  1  0.44676231  0.97507825  0.75000246  1
  O  O19  1  0.55323548  0.02492108  0.25000143  1
  O  O20  1  0.97506301  0.52830453  0.25000127  1
  O  O21  1  0.52830534  0.55322574  0.75000911  1
  O  O22  1  0.79628945  0.25562909  0.96058281  1
  O  O23  1  0.54066904  0.79628772  0.46057309  1
  O  O24  1  0.25561809  0.45932312  0.46057092  1
  O  O25  1  0.74437667  0.54067580  0.96058007  1
  O  O26  1  0.45934266  0.20371402  0.96058017  1
  O  O27  1  0.20370850  0.74437055  0.46056909  1
  O  O28  1  0.20370182  0.74436368  0.03942213  1
  O  O29  1  0.45933661  0.20371301  0.53943263  1
  O  O30  1  0.74437867  0.54067603  0.53943612  1
  O  O31  1  0.25562704  0.45933047  0.03942334  1
