# generated using pymatgen
data_KH3F4
_symmetry_space_group_name_H-M   'P 1'
_cell_length_a   5.72979755
_cell_length_b   5.72979763
_cell_length_c   5.72979714
_cell_angle_alpha   80.48559094
_cell_angle_beta   80.48559364
_cell_angle_gamma   80.48559446
_symmetry_Int_Tables_number   1
_chemical_formula_structural   KH3F4
_chemical_formula_sum   'K2 H6 F8'
_cell_volume   181.12267912
_cell_formula_units_Z   2
loop_
 _symmetry_equiv_pos_site_id
 _symmetry_equiv_pos_as_xyz
  1  'x, y, z'
loop_
 _atom_site_type_symbol
 _atom_site_label
 _atom_site_symmetry_multiplicity
 _atom_site_fract_x
 _atom_site_fract_y
 _atom_site_fract_z
 _atom_site_occupancy
  K  K0  1  0.50000000  0.50000000  0.50000000  1
  K  K1  1  0.00000000  -0.00000000  -0.00000000  1
  H  H2  1  0.94030826  0.75000000  0.55969174  1
  H  H3  1  0.75000000  0.55969174  0.94030826  1
  H  H4  1  0.25000000  0.44030826  0.05969174  1
  H  H5  1  0.44030826  0.05969174  0.25000000  1
  H  H6  1  0.55969174  0.94030826  0.75000000  1
  H  H7  1  0.05969174  0.25000000  0.44030826  1
  F  F8  1  0.25000000  0.57339097  0.92660903  1
  F  F9  1  0.42660903  0.07339097  0.75000000  1
  F  F10  1  0.75000000  0.42660903  0.07339097  1
  F  F11  1  0.07339097  0.75000000  0.42660903  1
  F  F12  1  0.75000000  0.75000000  0.75000000  1
  F  F13  1  0.25000000  0.25000000  0.25000000  1
  F  F14  1  0.92660903  0.25000000  0.57339097  1
  F  F15  1  0.57339097  0.92660903  0.25000000  1
