# generated using pymatgen
data_TbGeRh
_symmetry_space_group_name_H-M   'P 1'
_cell_length_a   4.31818463
_cell_length_b   6.95375719
_cell_length_c   7.49716752
_cell_angle_alpha   90.00000000
_cell_angle_beta   90.00000000
_cell_angle_gamma   90.00000000
_symmetry_Int_Tables_number   1
_chemical_formula_structural   TbGeRh
_chemical_formula_sum   'Tb4 Ge4 Rh4'
_cell_volume   225.12200304
_cell_formula_units_Z   4
loop_
 _symmetry_equiv_pos_site_id
 _symmetry_equiv_pos_as_xyz
  1  'x, y, z'
loop_
 _atom_site_type_symbol
 _atom_site_label
 _atom_site_symmetry_multiplicity
 _atom_site_fract_x
 _atom_site_fract_y
 _atom_site_fract_z
 _atom_site_occupancy
  Tb  Tb0  1  0.75000000  0.00153865  0.80475639  1
  Tb  Tb1  1  0.25000000  0.99846135  0.19524361  1
  Tb  Tb2  1  0.75000000  0.50153865  0.69524361  1
  Tb  Tb3  1  0.25000000  0.49846035  0.30475639  1
  Ge  Ge4  1  0.75000000  0.20871995  0.39610506  1
  Ge  Ge5  1  0.25000000  0.79128005  0.60389494  1
  Ge  Ge6  1  0.75000000  0.70871995  0.10389494  1
  Ge  Ge7  1  0.25000000  0.29128005  0.89610506  1
  Rh  Rh8  1  0.75000000  0.84543088  0.43147295  1
  Rh  Rh9  1  0.25000000  0.15456912  0.56852705  1
  Rh  Rh10  1  0.75000000  0.34543088  0.06852705  1
  Rh  Rh11  1  0.25000000  0.65456912  0.93147295  1
