# generated using pymatgen
data_EuPd3S4
_symmetry_space_group_name_H-M   'P 1'
_cell_length_a   6.70970292
_cell_length_b   6.70973062
_cell_length_c   6.70971474
_cell_angle_alpha   90.00000000
_cell_angle_beta   90.00000000
_cell_angle_gamma   90.00026574
_symmetry_Int_Tables_number   1
_chemical_formula_structural   EuPd3S4
_chemical_formula_sum   'Eu2 Pd6 S8'
_cell_volume   302.07336469
_cell_formula_units_Z   2
loop_
 _symmetry_equiv_pos_site_id
 _symmetry_equiv_pos_as_xyz
  1  'x, y, z'
loop_
 _atom_site_type_symbol
 _atom_site_label
 _atom_site_symmetry_multiplicity
 _atom_site_fract_x
 _atom_site_fract_y
 _atom_site_fract_z
 _atom_site_occupancy
  Eu  Eu0  1  0.50000000  0.50000000  0.50000000  1
  Eu  Eu1  1  -0.00000000  -0.00000000  -0.00000000  1
  Pd  Pd2  1  0.74999939  0.00000100  0.50000000  1
  Pd  Pd3  1  0.49999900  0.74999762  -0.00000000  1
  Pd  Pd4  1  -0.00000000  0.50000000  0.74999614  1
  Pd  Pd5  1  -0.00000000  0.50000000  0.25000386  1
  Pd  Pd6  1  0.25000061  0.99999900  0.50000000  1
  Pd  Pd7  1  0.50000100  0.25000238  -0.00000000  1
  S  S8  1  0.74999268  0.25000866  0.25001028  1
  S  S9  1  0.25000632  0.25000866  0.74998972  1
  S  S10  1  0.25000732  0.74999134  0.25001028  1
  S  S11  1  0.74999368  0.74999134  0.74998972  1
  S  S12  1  0.25000732  0.74999134  0.74998972  1
  S  S13  1  0.74999368  0.74999134  0.25001028  1
  S  S14  1  0.25000632  0.25000866  0.25001028  1
  S  S15  1  0.74999268  0.25000866  0.74998972  1
