# generated using pymatgen
data_RbCr5Se8
_symmetry_space_group_name_H-M   'P 1'
_cell_length_a   3.68411715
_cell_length_b   9.14802418
_cell_length_c   9.66221247
_cell_angle_alpha   104.68097447
_cell_angle_beta   100.99045588
_cell_angle_gamma   90.00000170
_symmetry_Int_Tables_number   1
_chemical_formula_structural   RbCr5Se8
_chemical_formula_sum   'Rb1 Cr5 Se8'
_cell_volume   308.83007286
_cell_formula_units_Z   1
loop_
 _symmetry_equiv_pos_site_id
 _symmetry_equiv_pos_as_xyz
  1  'x, y, z'
loop_
 _atom_site_type_symbol
 _atom_site_label
 _atom_site_symmetry_multiplicity
 _atom_site_fract_x
 _atom_site_fract_y
 _atom_site_fract_z
 _atom_site_occupancy
  Rb  Rb0  1  0.50000175  0.50000796  0.00000250  1
  Cr  Cr1  1  -0.00000090  0.00001060  -0.00000081  1
  Cr  Cr2  1  0.29555463  0.66545051  0.59110625  1
  Cr  Cr3  1  0.65870928  0.97782872  0.31741955  1
  Cr  Cr4  1  0.34128973  0.02217669  0.68257945  1
  Cr  Cr5  1  0.70444990  0.33455432  0.40890181  1
  Se  Se6  1  0.23843159  0.15674888  0.47686318  1
  Se  Se7  1  0.42448455  0.84789833  0.84897010  1
  Se  Se8  1  0.57552070  0.15210585  0.15104140  1
  Se  Se9  1  0.91396271  0.17163383  0.82792641  1
  Se  Se10  1  0.08603641  0.82835648  0.17207282  1
  Se  Se11  1  0.82915917  0.51078861  0.65831834  1
  Se  Se12  1  0.17084025  0.48919989  0.34167951  1
  Se  Se13  1  0.76155924  0.84323833  0.52311947  1
