# generated using pymatgen
data_NdCoO3
_symmetry_space_group_name_H-M   'P 1'
_cell_length_a   5.35441960
_cell_length_b   5.36020413
_cell_length_c   7.57320125
_cell_angle_alpha   90.00000000
_cell_angle_beta   90.00000000
_cell_angle_gamma   90.00021186
_symmetry_Int_Tables_number   1
_chemical_formula_structural   NdCoO3
_chemical_formula_sum   'Nd4 Co4 O12'
_cell_volume   217.35679852
_cell_formula_units_Z   4
loop_
 _symmetry_equiv_pos_site_id
 _symmetry_equiv_pos_as_xyz
  1  'x, y, z'
loop_
 _atom_site_type_symbol
 _atom_site_label
 _atom_site_symmetry_multiplicity
 _atom_site_fract_x
 _atom_site_fract_y
 _atom_site_fract_z
 _atom_site_occupancy
  Nd  Nd0  1  0.00763620  0.96165307  0.75000000  1
  Nd  Nd1  1  0.49236593  0.46165396  0.75000000  1
  Nd  Nd2  1  0.50763407  0.53834604  0.25000000  1
  Nd  Nd3  1  0.99236380  0.03834693  0.25000000  1
  Co  Co4  1  0.50000000  -0.00000000  0.50000000  1
  Co  Co5  1  0.00000000  0.50000000  0.00000000  1
  Co  Co6  1  0.00000000  0.50000000  0.50000000  1
  Co  Co7  1  0.50000000  -0.00000000  0.00000000  1
  O  O8  1  0.71511526  0.28419036  0.46185462  1
  O  O9  1  0.78488242  0.78418927  0.03814622  1
  O  O10  1  0.21511758  0.21581073  0.53814622  1
  O  O11  1  0.28488474  0.71580964  0.96185462  1
  O  O12  1  0.28488474  0.71580964  0.53814538  1
  O  O13  1  0.21511758  0.21581073  0.96185378  1
  O  O14  1  0.78488242  0.78418927  0.46185378  1
  O  O15  1  0.71511526  0.28419036  0.03814538  1
  O  O16  1  0.07065459  0.48979969  0.25000000  1
  O  O17  1  0.42934676  0.98980175  0.25000000  1
  O  O18  1  0.57065324  0.01019825  0.75000000  1
  O  O19  1  0.92934541  0.51020031  0.75000000  1
