# generated using pymatgen
data_V5Ge3
_symmetry_space_group_name_H-M   'P 1'
_cell_length_a   7.26521091
_cell_length_b   7.26521242
_cell_length_c   4.94766707
_cell_angle_alpha   90.00000000
_cell_angle_beta   90.00000000
_cell_angle_gamma   119.99997551
_symmetry_Int_Tables_number   1
_chemical_formula_structural   V5Ge3
_chemical_formula_sum   'V10 Ge6'
_cell_volume   226.16622543
_cell_formula_units_Z   2
loop_
 _symmetry_equiv_pos_site_id
 _symmetry_equiv_pos_as_xyz
  1  'x, y, z'
loop_
 _atom_site_type_symbol
 _atom_site_label
 _atom_site_symmetry_multiplicity
 _atom_site_fract_x
 _atom_site_fract_y
 _atom_site_fract_z
 _atom_site_occupancy
  V  V0  1  0.74889303  0.99999900  0.74999900  1
  V  V1  1  0.74889203  0.74889303  0.25000100  1
  V  V2  1  0.00000000  0.25110597  0.25000100  1
  V  V3  1  -0.00000000  0.74889403  0.74999900  1
  V  V4  1  0.25110797  0.25110697  0.74999900  1
  V  V5  1  0.25110697  0.00000100  0.25000100  1
  V  V6  1  0.33333400  0.66666600  -0.00000000  1
  V  V7  1  0.66666700  0.33333400  0.50000000  1
  V  V8  1  0.66666600  0.33333400  -0.00000000  1
  V  V9  1  0.33333400  0.66666600  0.50000000  1
  Ge  Ge10  1  0.38917609  0.99999900  0.75000100  1
  Ge  Ge11  1  0.38917509  0.38917609  0.24999900  1
  Ge  Ge12  1  0.00000100  0.61082391  0.24999900  1
  Ge  Ge13  1  0.99999900  0.38917609  0.75000100  1
  Ge  Ge14  1  0.61082491  0.61082391  0.75000100  1
  Ge  Ge15  1  0.61082391  0.00000100  0.24999900  1
