# generated using pymatgen
data_Cs2UCl6
_symmetry_space_group_name_H-M   'P 1'
_cell_length_a   7.51244893
_cell_length_b   7.51246044
_cell_length_c   6.12176950
_cell_angle_alpha   90.00000154
_cell_angle_beta   90.00032882
_cell_angle_gamma   120.00004284
_symmetry_Int_Tables_number   1
_chemical_formula_structural   Cs2UCl6
_chemical_formula_sum   'Cs2 U1 Cl6'
_cell_volume   299.20658550
_cell_formula_units_Z   1
loop_
 _symmetry_equiv_pos_site_id
 _symmetry_equiv_pos_as_xyz
  1  'x, y, z'
loop_
 _atom_site_type_symbol
 _atom_site_label
 _atom_site_symmetry_multiplicity
 _atom_site_fract_x
 _atom_site_fract_y
 _atom_site_fract_z
 _atom_site_occupancy
  Cs  Cs0  1  0.66666600  0.33333200  0.26591584  1
  Cs  Cs1  1  0.33333400  0.66666800  0.73408416  1
  U  U2  1  -0.00000000  -0.00000000  0.00000000  1
  Cl  Cl3  1  0.83250564  0.16749336  0.76033216  1
  Cl  Cl4  1  0.83250564  0.66501227  0.76033216  1
  Cl  Cl5  1  0.33498873  0.16749436  0.76033216  1
  Cl  Cl6  1  0.16749436  0.83250664  0.23966784  1
  Cl  Cl7  1  0.16749436  0.33498773  0.23966784  1
  Cl  Cl8  1  0.66501127  0.83250564  0.23966784  1
