# generated using pymatgen
data_MnSe2
_symmetry_space_group_name_H-M   'P 1'
_cell_length_a   6.22571049
_cell_length_b   6.22584572
_cell_length_c   6.22567029
_cell_angle_alpha   89.99719925
_cell_angle_beta   90.00106967
_cell_angle_gamma   89.99951741
_symmetry_Int_Tables_number   1
_chemical_formula_structural   MnSe2
_chemical_formula_sum   'Mn4 Se8'
_cell_volume   241.30892896
_cell_formula_units_Z   4
loop_
 _symmetry_equiv_pos_site_id
 _symmetry_equiv_pos_as_xyz
  1  'x, y, z'
loop_
 _atom_site_type_symbol
 _atom_site_label
 _atom_site_symmetry_multiplicity
 _atom_site_fract_x
 _atom_site_fract_y
 _atom_site_fract_z
 _atom_site_occupancy
  Mn  Mn0  1  0.00000000  0.00000000  0.00000000  1
  Mn  Mn1  1  0.50000000  0.00000000  0.50000000  1
  Mn  Mn2  1  0.50000000  0.50000000  0.00000000  1
  Mn  Mn3  1  0.00000000  0.50000000  0.50000000  1
  Se  Se4  1  0.37086178  0.37088387  0.37086676  1
  Se  Se5  1  0.12913658  0.62913526  0.87088177  1
  Se  Se6  1  0.87086391  0.12913295  0.62910646  1
  Se  Se7  1  0.62913848  0.87085795  0.12914738  1
  Se  Se8  1  0.62913822  0.62911613  0.62913324  1
  Se  Se9  1  0.87086342  0.37086474  0.12911823  1
  Se  Se10  1  0.12913609  0.87086705  0.37089354  1
  Se  Se11  1  0.37086152  0.12914205  0.87085262  1
