# generated using pymatgen
data_PH5NO3F
_symmetry_space_group_name_H-M   'P 1'
_cell_length_a   7.32284335
_cell_length_b   7.39643543
_cell_length_c   7.65282210
_cell_angle_alpha   84.18457816
_cell_angle_beta   84.80520161
_cell_angle_gamma   68.15500544
_symmetry_Int_Tables_number   1
_chemical_formula_structural   PH5NO3F
_chemical_formula_sum   'P4 H20 N4 O12 F4'
_cell_volume   382.12854323
_cell_formula_units_Z   4
loop_
 _symmetry_equiv_pos_site_id
 _symmetry_equiv_pos_as_xyz
  1  'x, y, z'
loop_
 _atom_site_type_symbol
 _atom_site_label
 _atom_site_symmetry_multiplicity
 _atom_site_fract_x
 _atom_site_fract_y
 _atom_site_fract_z
 _atom_site_occupancy
  P  P0  1  0.74231024  0.73844987  0.59788604  1
  P  P1  1  0.25768976  0.26155013  0.40211396  1
  P  P2  1  0.71444111  0.23297870  0.94231975  1
  P  P3  1  0.28555889  0.76702130  0.05768025  1
  H  H4  1  0.19661536  0.74888912  0.72760993  1
  H  H5  1  0.80338464  0.25111088  0.27239007  1
  H  H6  1  0.11832913  0.77048967  0.52368363  1
  H  H7  1  0.88167087  0.22951033  0.47631637  1
  H  H8  1  0.19222717  0.94290652  0.58732457  1
  H  H9  1  0.80777283  0.05709348  0.41267543  1
  H  H10  1  0.35982481  0.71852445  0.55391204  1
  H  H11  1  0.64017519  0.28147555  0.44608796  1
  H  H12  1  0.77444904  0.58760257  0.09420511  1
  H  H13  1  0.22555096  0.41239743  0.90579489  1
  H  H14  1  0.94240317  0.69367471  0.04478386  1
  H  H15  1  0.05759683  0.30632529  0.95521614  1
  H  H16  1  0.70196170  0.83394488  0.06108918  1
  H  H17  1  0.29803830  0.16605512  0.93891082  1
  H  H18  1  0.81947518  0.72288725  0.24096276  1
  H  H19  1  0.18052482  0.27711275  0.75903724  1
  H  H20  1  0.51439043  0.90092331  0.79080256  1
  H  H21  1  0.48560957  0.09907669  0.20919744  1
  H  H22  1  0.61553991  0.45832716  0.71380995  1
  H  H23  1  0.38446009  0.54167284  0.28619005  1
  N  N24  1  0.19213247  0.29188057  0.89006996  1
  N  N25  1  0.80786753  0.70811943  0.10993004  1
  N  N26  1  0.78323041  0.20511883  0.40288931  1
  N  N27  1  0.21676959  0.79488117  0.59711069  1
  O  O28  1  0.57635968  0.36342136  0.80075995  1
  O  O29  1  0.18660507  0.66567829  0.96216351  1
  O  O30  1  0.60176615  0.92309948  0.68604235  1
  O  O31  1  0.39823385  0.07690052  0.31395765  1
  O  O32  1  0.64520390  0.59944482  0.56810139  1
  O  O33  1  0.35479610  0.40055518  0.43189861  1
  O  O34  1  0.85944917  0.79627019  0.44852598  1
  O  O35  1  0.14055083  0.20372981  0.55147402  1
  O  O36  1  0.81339493  0.33432171  0.03783649  1
  O  O37  1  0.38846504  0.88266477  0.94926251  1
  O  O38  1  0.42364032  0.63657864  0.19924005  1
  O  O39  1  0.61153396  0.11733523  0.05073749  1
  F  F40  1  0.89433028  0.62924473  0.74422552  1
  F  F41  1  0.11428212  0.91745301  0.16982549  1
  F  F42  1  0.88571788  0.08254699  0.83017451  1
  F  F43  1  0.10566972  0.37075527  0.25577448  1
