# generated using pymatgen
data_H4CSN2
_symmetry_space_group_name_H-M   'P 1'
_cell_length_a   5.60102042
_cell_length_b   7.58330198
_cell_length_c   8.67928859
_cell_angle_alpha   90.00000000
_cell_angle_beta   90.00000000
_cell_angle_gamma   90.00000000
_symmetry_Int_Tables_number   1
_chemical_formula_structural   H4CSN2
_chemical_formula_sum   'H16 C4 S4 N8'
_cell_volume   368.64609310
_cell_formula_units_Z   4
loop_
 _symmetry_equiv_pos_site_id
 _symmetry_equiv_pos_as_xyz
  1  'x, y, z'
loop_
 _atom_site_type_symbol
 _atom_site_label
 _atom_site_symmetry_multiplicity
 _atom_site_fract_x
 _atom_site_fract_y
 _atom_site_fract_z
 _atom_site_occupancy
  H  H0  1  0.80825786  0.09221896  0.48526568  1
  H  H1  1  0.30825786  0.40778104  0.51473432  1
  H  H2  1  0.69174214  0.59221896  0.01473432  1
  H  H3  1  0.19174214  0.90778104  0.98526568  1
  H  H4  1  0.19174214  0.90778104  0.51473432  1
  H  H5  1  0.69174214  0.59221896  0.48526568  1
  H  H6  1  0.30825786  0.40778104  0.98526568  1
  H  H7  1  0.80825786  0.09221896  0.01473432  1
  H  H8  1  0.59023527  0.20339129  0.37781154  1
  H  H9  1  0.59023527  0.20339129  0.12218846  1
  H  H10  1  0.90976473  0.70339129  0.12218846  1
  H  H11  1  0.40976473  0.79660871  0.87781154  1
  H  H12  1  0.40976473  0.79660871  0.62218846  1
  H  H13  1  0.90976473  0.70339129  0.37781154  1
  H  H14  1  0.09023527  0.29660871  0.87781154  1
  H  H15  1  0.09023527  0.29660871  0.62218846  1
  C  C16  1  0.65143125  0.58407106  0.25000000  1
  C  C17  1  0.84856875  0.08407106  0.25000000  1
  C  C18  1  0.34856875  0.41592894  0.75000000  1
  C  C19  1  0.15143125  0.91592894  0.75000000  1
  S  S20  1  0.88868493  0.03056631  0.75000000  1
  S  S21  1  0.38868493  0.46943369  0.25000000  1
  S  S22  1  0.61131507  0.53056631  0.75000000  1
  S  S23  1  0.11131507  0.96943369  0.25000000  1
  N  N24  1  0.74280624  0.13128714  0.38143394  1
  N  N25  1  0.75719376  0.63128714  0.38143394  1
  N  N26  1  0.24280624  0.36871286  0.88143394  1
  N  N27  1  0.74280624  0.13128714  0.11856606  1
  N  N28  1  0.25719376  0.86871286  0.61856606  1
  N  N29  1  0.25719376  0.86871286  0.88143394  1
  N  N30  1  0.75719376  0.63128714  0.11856606  1
  N  N31  1  0.24280624  0.36871286  0.61856606  1
