# generated using pymatgen
data_CaH12(ClO3)2
_symmetry_space_group_name_H-M   'P 1'
_cell_length_a   7.83147834
_cell_length_b   7.83147834
_cell_length_c   3.87517744
_cell_angle_alpha   90.00000282
_cell_angle_beta   89.99999718
_cell_angle_gamma   120.00001207
_symmetry_Int_Tables_number   1
_chemical_formula_structural   CaH12(ClO3)2
_chemical_formula_sum   'Ca1 H12 Cl2 O6'
_cell_volume   205.83047415
_cell_formula_units_Z   1
loop_
 _symmetry_equiv_pos_site_id
 _symmetry_equiv_pos_as_xyz
  1  'x, y, z'
loop_
 _atom_site_type_symbol
 _atom_site_label
 _atom_site_symmetry_multiplicity
 _atom_site_fract_x
 _atom_site_fract_y
 _atom_site_fract_z
 _atom_site_occupancy
  Ca  Ca0  1  0.00000021  0.00000021  0.00000000  1
  H  H1  1  0.11391040  0.76773419  0.52207278  1
  H  H2  1  0.23226613  0.34617691  0.52207275  1
  H  H3  1  0.65382339  0.88608996  0.52207266  1
  H  H4  1  0.34617691  0.23226613  0.47792725  1
  H  H5  1  0.88608996  0.65382339  0.47792734  1
  H  H6  1  0.76773419  0.11391040  0.47792722  1
  H  H7  1  0.10068788  0.43615339  0.09976823  1
  H  H8  1  0.56384656  0.66453456  0.09976829  1
  H  H9  1  0.33546532  0.89931201  0.09976829  1
  H  H10  1  0.43615339  0.10068788  0.90023177  1
  H  H11  1  0.89931201  0.33546532  0.90023171  1
  H  H12  1  0.66453456  0.56384656  0.90023171  1
  Cl  Cl13  1  0.66666682  0.33333300  0.58206919  1
  Cl  Cl14  1  0.33333300  0.66666682  0.41793081  1
  O  O15  1  0.21354111  0.21354111  0.50000000  1
  O  O16  1  0.00000022  0.78645820  0.50000007  1
  O  O17  1  0.78645820  0.00000022  0.49999993  1
  O  O18  1  0.68828063  0.68828063  0.00000000  1
  O  O19  1  0.99999980  0.31171931  0.99999994  1
  O  O20  1  0.31171931  0.99999980  0.00000006  1
