# generated using pymatgen
data_H2SO4
_symmetry_space_group_name_H-M   'P 1'
_cell_length_a   4.54894621
_cell_length_b   7.69527822
_cell_length_c   8.65137614
_cell_angle_alpha   71.84173551
_cell_angle_beta   90.00000000
_cell_angle_gamma   90.00000000
_symmetry_Int_Tables_number   1
_chemical_formula_structural   H2SO4
_chemical_formula_sum   'H8 S4 O16'
_cell_volume   287.76305362
_cell_formula_units_Z   4
loop_
 _symmetry_equiv_pos_site_id
 _symmetry_equiv_pos_as_xyz
  1  'x, y, z'
loop_
 _atom_site_type_symbol
 _atom_site_label
 _atom_site_symmetry_multiplicity
 _atom_site_fract_x
 _atom_site_fract_y
 _atom_site_fract_z
 _atom_site_occupancy
  H  H0  1  0.27594185  0.42482187  0.41548357  1
  H  H1  1  0.77594185  0.57517813  0.08451643  1
  H  H2  1  0.72405815  0.57517813  0.58451643  1
  H  H3  1  0.22405815  0.42482187  0.91548357  1
  H  H4  1  0.84061608  0.87239647  0.68374302  1
  H  H5  1  0.34061608  0.12760353  0.81625698  1
  H  H6  1  0.15938392  0.12760353  0.31625698  1
  H  H7  1  0.65938392  0.87239647  0.18374302  1
  S  S8  1  0.56382444  0.26554879  0.31958950  1
  S  S9  1  0.06382444  0.73445121  0.18041050  1
  S  S10  1  0.43617556  0.73445121  0.68041050  1
  S  S11  1  0.93617556  0.26554879  0.81958950  1
  O  O12  1  0.37434394  0.10332613  0.31038486  1
  O  O13  1  0.57076543  0.67294779  0.54278368  1
  O  O14  1  0.92923457  0.67294779  0.04278368  1
  O  O15  1  0.07076543  0.32705221  0.95721632  1
  O  O16  1  0.95851782  0.41230000  0.66900111  1
  O  O17  1  0.45851782  0.58770000  0.83099889  1
  O  O18  1  0.04148218  0.58770000  0.33099889  1
  O  O19  1  0.54148218  0.41230000  0.16900111  1
  O  O20  1  0.65315847  0.19246484  0.87243266  1
  O  O21  1  0.15315847  0.80753516  0.62756734  1
  O  O22  1  0.34684153  0.80753516  0.12756734  1
  O  O23  1  0.84684153  0.19246484  0.37243266  1
  O  O24  1  0.62565606  0.89667387  0.68961514  1
  O  O25  1  0.12565606  0.10332613  0.81038486  1
  O  O26  1  0.42923457  0.32705221  0.45721632  1
  O  O27  1  0.87434394  0.89667387  0.18961514  1
