# generated using pymatgen
data_BeH8SO8
_symmetry_space_group_name_H-M   'P 1'
_cell_length_a   7.73942879
_cell_length_b   7.73942879
_cell_length_c   7.73942879
_cell_angle_alpha   118.32125424
_cell_angle_beta   118.32125424
_cell_angle_gamma   92.93312949
_symmetry_Int_Tables_number   1
_chemical_formula_structural   BeH8SO8
_chemical_formula_sum   'Be2 H16 S2 O16'
_cell_volume   335.64405908
_cell_formula_units_Z   2
loop_
 _symmetry_equiv_pos_site_id
 _symmetry_equiv_pos_as_xyz
  1  'x, y, z'
loop_
 _atom_site_type_symbol
 _atom_site_label
 _atom_site_symmetry_multiplicity
 _atom_site_fract_x
 _atom_site_fract_y
 _atom_site_fract_z
 _atom_site_occupancy
  Be  Be0  1  0.75000100  0.25000000  0.50000000  1
  Be  Be1  1  0.25000000  0.75000100  0.50000000  1
  H  H2  1  0.41746109  0.26346061  0.40815960  1
  H  H3  1  0.85530101  0.00930149  0.59183940  1
  H  H4  1  0.23653939  0.08253891  0.59184040  1
  H  H5  1  0.49069751  0.64469799  0.40815960  1
  H  H6  1  0.91746109  0.50930149  0.15399948  1
  H  H7  1  0.35530201  0.76345961  0.84599952  1
  H  H8  1  0.99069851  0.58253691  0.84599952  1
  H  H9  1  0.73653939  0.14469799  0.15399948  1
  H  H10  1  0.59185124  0.36490032  0.69132589  1
  H  H11  1  0.67357442  0.90052534  0.30867511  1
  H  H12  1  0.13509868  0.90814976  0.30867411  1
  H  H13  1  0.59947666  0.82642558  0.69132589  1
  H  H14  1  0.09185024  0.40052534  0.22694992  1
  H  H15  1  0.17357442  0.86489932  0.77305008  1
  H  H16  1  0.09947666  0.40814976  0.77305108  1
  H  H17  1  0.63510068  0.32642458  0.22694992  1
  S  S18  1  0.00000000  0.00000000  0.00000000  1
  S  S19  1  0.50000000  0.50000000  0.00000000  1
  O  O20  1  0.56735725  0.31077876  0.53368847  1
  O  O21  1  0.77708930  0.03366878  0.46631153  1
  O  O22  1  0.18922124  0.93264275  0.46631153  1
  O  O23  1  0.46633122  0.72291070  0.53368847  1
  O  O24  1  0.06735725  0.53366778  0.25657849  1
  O  O25  1  0.27708930  0.81077876  0.74342051  1
  O  O26  1  0.96633122  0.43264275  0.74342051  1
  O  O27  1  0.68922024  0.22291070  0.25657849  1
  O  O28  1  0.16355540  0.20527815  0.21260038  1
  O  O29  1  0.99267777  0.95095502  0.78739762  1
  O  O30  1  0.29472085  0.33644360  0.78739762  1
  O  O31  1  0.54904398  0.50732023  0.21260038  1
  O  O32  1  0.66355640  0.45095502  0.95827725  1
  O  O33  1  0.49267877  0.70527815  0.04172275  1
  O  O34  1  0.04904498  0.83644260  0.04172275  1
  O  O35  1  0.79472185  0.00732123  0.95827825  1
