# generated using pymatgen
data_UCrS3
_symmetry_space_group_name_H-M   'P 1'
_cell_length_a   6.20004260
_cell_length_b   7.12260260
_cell_length_c   8.92544017
_cell_angle_alpha   90.00000000
_cell_angle_beta   90.00000000
_cell_angle_gamma   90.00000000
_symmetry_Int_Tables_number   1
_chemical_formula_structural   UCrS3
_chemical_formula_sum   'U4 Cr4 S12'
_cell_volume   394.15136102
_cell_formula_units_Z   4
loop_
 _symmetry_equiv_pos_site_id
 _symmetry_equiv_pos_as_xyz
  1  'x, y, z'
loop_
 _atom_site_type_symbol
 _atom_site_label
 _atom_site_symmetry_multiplicity
 _atom_site_fract_x
 _atom_site_fract_y
 _atom_site_fract_z
 _atom_site_occupancy
  U  U0  1  0.95105167  0.38930925  0.25000000  1
  U  U1  1  0.45105167  0.11069075  0.75000000  1
  U  U2  1  0.54894833  0.88930925  0.25000000  1
  U  U3  1  0.04894833  0.61069075  0.75000000  1
  Cr  Cr4  1  0.00000000  -0.00000000  0.00000000  1
  Cr  Cr5  1  0.00000000  -0.00000000  0.50000000  1
  Cr  Cr6  1  0.50000000  0.50000000  0.50000000  1
  Cr  Cr7  1  0.50000000  0.50000000  0.00000000  1
  S  S8  1  0.33142970  0.81822445  0.94291776  1
  S  S9  1  0.16857030  0.31822445  0.94291776  1
  S  S10  1  0.66857030  0.18177555  0.05708224  1
  S  S11  1  0.33142970  0.81822445  0.55708224  1
  S  S12  1  0.13610929  0.04213684  0.25000000  1
  S  S13  1  0.63610929  0.45786316  0.75000000  1
  S  S14  1  0.36389071  0.54213684  0.25000000  1
  S  S15  1  0.86389071  0.95786316  0.75000000  1
  S  S16  1  0.16857030  0.31822445  0.55708224  1
  S  S17  1  0.66857030  0.18177555  0.44291776  1
  S  S18  1  0.83142970  0.68177555  0.05708224  1
  S  S19  1  0.83142970  0.68177555  0.44291776  1
