# generated using pymatgen
data_CeSiBO5
_symmetry_space_group_name_H-M   'P 1'
_cell_length_a   6.85199907
_cell_length_b   6.85199947
_cell_length_c   6.69212158
_cell_angle_alpha   89.99940003
_cell_angle_beta   90.00024683
_cell_angle_gamma   120.00026060
_symmetry_Int_Tables_number   1
_chemical_formula_structural   CeSiBO5
_chemical_formula_sum   'Ce3 Si3 B3 O15'
_cell_volume   272.09961655
_cell_formula_units_Z   3
loop_
 _symmetry_equiv_pos_site_id
 _symmetry_equiv_pos_as_xyz
  1  'x, y, z'
loop_
 _atom_site_type_symbol
 _atom_site_label
 _atom_site_symmetry_multiplicity
 _atom_site_fract_x
 _atom_site_fract_y
 _atom_site_fract_z
 _atom_site_occupancy
  Ce  Ce0  1  0.41204171  0.41246168  0.50077364  1
  Ce  Ce1  1  0.00042402  0.58796555  0.16739196  1
  Ce  Ce2  1  0.58755526  0.99958428  0.83409146  1
  Si  Si3  1  0.41547594  0.41736147  0.00196331  1
  Si  Si4  1  0.00189036  0.58452314  0.66862797  1
  Si  Si5  1  0.58262840  0.99811536  0.33528566  1
  B  B6  1  0.89941220  0.88470197  0.47295012  1
  B  B7  1  0.98528286  0.10057611  0.13961745  1
  B  B8  1  0.11529852  0.01471516  0.80627981  1
  O  O9  1  0.14911062  0.54442676  0.50442952  1
  O  O10  1  0.39530945  0.85092430  0.17110505  1
  O  O11  1  0.45558124  0.60469210  0.83779915  1
  O  O12  1  0.06129012  0.05381547  0.60693767  1
  O  O13  1  0.94618552  0.00747185  0.94027384  1
  O  O14  1  0.99250623  0.93869546  0.27360781  1
  O  O15  1  0.34920289  0.19564702  0.85854437  1
  O  O16  1  0.80435429  0.15355929  0.19187654  1
  O  O17  1  0.84642842  0.65080104  0.52523065  1
  O  O18  1  0.19161973  0.33134708  0.14846596  1
  O  O19  1  0.66863423  0.86026060  0.48179135  1
  O  O20  1  0.13974862  0.80838273  0.81511878  1
  O  O21  1  0.60927992  0.47269451  0.16281168  1
  O  O22  1  0.52726895  0.13654842  0.49615450  1
  O  O23  1  0.86347051  0.39072863  0.82947175  1
