# generated using pymatgen
data_KMgH9(CO5)2
_symmetry_space_group_name_H-M   'P 1'
_cell_length_a   5.27460088
_cell_length_b   6.64889685
_cell_length_c   6.98301150
_cell_angle_alpha   116.80666453
_cell_angle_beta   90.31214779
_cell_angle_gamma   107.34276973
_symmetry_Int_Tables_number   1
_chemical_formula_structural   KMgH9(CO5)2
_chemical_formula_sum   'K1 Mg1 H9 C2 O10'
_cell_volume   205.80971120
_cell_formula_units_Z   1
loop_
 _symmetry_equiv_pos_site_id
 _symmetry_equiv_pos_as_xyz
  1  'x, y, z'
loop_
 _atom_site_type_symbol
 _atom_site_label
 _atom_site_symmetry_multiplicity
 _atom_site_fract_x
 _atom_site_fract_y
 _atom_site_fract_z
 _atom_site_occupancy
  K  K0  1  0.00000000  0.00000000  0.00000000  1
  Mg  Mg1  1  0.50000000  0.50000000  0.50000000  1
  H  H2  1  0.00000000  0.50000000  0.00000000  1
  H  H3  1  0.80563273  0.79703869  0.40177324  1
  H  H4  1  0.99332427  0.32988133  0.57337818  1
  H  H5  1  0.63848522  0.25353717  0.12422747  1
  H  H6  1  0.36151478  0.74646283  0.87577253  1
  H  H7  1  0.00667573  0.67011867  0.42662182  1
  H  H8  1  0.42305818  0.91806623  0.76256206  1
  H  H9  1  0.19436727  0.20296131  0.59822676  1
  H  H10  1  0.57694182  0.08193377  0.23743794  1
  C  C11  1  0.37253037  0.69601882  0.20415508  1
  C  C12  1  0.62746963  0.30398118  0.79584492  1
  O  O13  1  0.80161224  0.32710774  0.94760341  1
  O  O14  1  0.38969297  0.15651935  0.75425137  1
  O  O15  1  0.61030703  0.84348065  0.24574863  1
  O  O16  1  0.70879326  0.42904906  0.69878978  1
  O  O17  1  0.86233602  0.72979757  0.48961762  1
  O  O18  1  0.13766398  0.27020243  0.51038238  1
  O  O19  1  0.53908119  0.21581060  0.22997197  1
  O  O20  1  0.46091881  0.78418940  0.77002803  1
  O  O21  1  0.19838776  0.67289226  0.05239659  1
  O  O22  1  0.29120674  0.57095094  0.30121022  1
