# generated using pymatgen
data_PH3O4
_symmetry_space_group_name_H-M   'P 1'
_cell_length_a   4.73223527
_cell_length_b   5.74790254
_cell_length_c   11.49463885
_cell_angle_alpha   84.19797174
_cell_angle_beta   90.00000000
_cell_angle_gamma   90.00000000
_symmetry_Int_Tables_number   1
_chemical_formula_structural   PH3O4
_chemical_formula_sum   'P4 H12 O16'
_cell_volume   311.05737481
_cell_formula_units_Z   4
loop_
 _symmetry_equiv_pos_site_id
 _symmetry_equiv_pos_as_xyz
  1  'x, y, z'
loop_
 _atom_site_type_symbol
 _atom_site_label
 _atom_site_symmetry_multiplicity
 _atom_site_fract_x
 _atom_site_fract_y
 _atom_site_fract_z
 _atom_site_occupancy
  P  P0  1  0.68859841  0.20862818  0.86092522  1
  P  P1  1  0.18859841  0.79137182  0.63907478  1
  P  P2  1  0.31140159  0.79137182  0.13907478  1
  P  P3  1  0.81140159  0.20862818  0.36092522  1
  H  H4  1  0.36511136  0.48417268  0.82317239  1
  H  H5  1  0.86511136  0.51582732  0.67682761  1
  H  H6  1  0.63488864  0.51582732  0.17682761  1
  H  H7  1  0.13488864  0.48417268  0.32317239  1
  H  H8  1  0.50746911  0.86522793  0.82888308  1
  H  H9  1  0.00746911  0.13477207  0.67111692  1
  H  H10  1  0.49253089  0.13477207  0.17111692  1
  H  H11  1  0.99253089  0.86522793  0.32888308  1
  H  H12  1  0.07566389  0.27565435  0.95224621  1
  H  H13  1  0.57566389  0.72434565  0.54775379  1
  H  H14  1  0.92433611  0.72434565  0.04775379  1
  H  H15  1  0.42433611  0.27565435  0.45224621  1
  O  O16  1  0.82192431  0.28291049  0.74428643  1
  O  O17  1  0.32192431  0.71708951  0.75571357  1
  O  O18  1  0.17807569  0.71708951  0.25571357  1
  O  O19  1  0.67807569  0.28291049  0.24428643  1
  O  O20  1  0.39727906  0.32852517  0.87321629  1
  O  O21  1  0.89727906  0.67147483  0.62678371  1
  O  O22  1  0.60272094  0.67147483  0.12678371  1
  O  O23  1  0.10272094  0.32852517  0.37321629  1
  O  O24  1  0.64127154  0.94265207  0.88203676  1
  O  O25  1  0.14127154  0.05734793  0.61796324  1
  O  O26  1  0.35872846  0.05734793  0.11796324  1
  O  O27  1  0.85872846  0.94265207  0.38203676  1
  O  O28  1  0.87014035  0.27258754  0.96546398  1
  O  O29  1  0.37014035  0.72741246  0.53453602  1
  O  O30  1  0.12985965  0.72741246  0.03453602  1
  O  O31  1  0.62985965  0.27258754  0.46546398  1
