# generated using pymatgen
data_Cs2Mn3S4
_symmetry_space_group_name_H-M   'P 1'
_cell_length_a   6.08330977
_cell_length_b   9.65265644
_cell_length_c   9.65265607
_cell_angle_alpha   73.95933480
_cell_angle_beta   71.63250836
_cell_angle_gamma   71.63250777
_symmetry_Int_Tables_number   1
_chemical_formula_structural   Cs2Mn3S4
_chemical_formula_sum   'Cs4 Mn6 S8'
_cell_volume   500.56680977
_cell_formula_units_Z   2
loop_
 _symmetry_equiv_pos_site_id
 _symmetry_equiv_pos_as_xyz
  1  'x, y, z'
loop_
 _atom_site_type_symbol
 _atom_site_label
 _atom_site_symmetry_multiplicity
 _atom_site_fract_x
 _atom_site_fract_y
 _atom_site_fract_z
 _atom_site_occupancy
  Cs  Cs0  1  0.23563106  0.11931334  0.88068666  1
  Cs  Cs1  1  0.73563106  0.38068666  0.61931334  1
  Cs  Cs2  1  0.26436894  0.61931334  0.38068666  1
  Cs  Cs3  1  0.76436894  0.88068666  0.11931334  1
  Mn  Mn4  1  0.25000000  0.25000000  0.25000000  1
  Mn  Mn5  1  0.75000000  0.75000000  0.75000000  1
  Mn  Mn6  1  0.75000000  0.47460591  0.02539409  1
  Mn  Mn7  1  0.75000000  0.02539409  0.47460591  1
  Mn  Mn8  1  0.25000000  0.97460591  0.52539409  1
  Mn  Mn9  1  0.25000000  0.52539409  0.97460591  1
  S  S10  1  0.93754411  0.48015055  0.21024684  1
  S  S11  1  0.12794250  0.01984945  0.28975316  1
  S  S12  1  0.56245589  0.28975316  0.01984945  1
  S  S13  1  0.37205750  0.21024684  0.48015055  1
  S  S14  1  0.43754411  0.71024684  0.98015055  1
  S  S15  1  0.62794250  0.78975316  0.51984945  1
  S  S16  1  0.87205750  0.98015055  0.71024684  1
  S  S17  1  0.06245589  0.51984945  0.78975316  1
