# generated using pymatgen
data_Sr2InPt2
_symmetry_space_group_name_H-M   'P 1'
_cell_length_a   5.98602978
_cell_length_b   5.98602879
_cell_length_c   8.33579388
_cell_angle_alpha   78.50229655
_cell_angle_beta   78.50230306
_cell_angle_gamma   60.36772960
_symmetry_Int_Tables_number   1
_chemical_formula_structural   Sr2InPt2
_chemical_formula_sum   'Sr4 In2 Pt4'
_cell_volume   252.63173745
_cell_formula_units_Z   2
loop_
 _symmetry_equiv_pos_site_id
 _symmetry_equiv_pos_as_xyz
  1  'x, y, z'
loop_
 _atom_site_type_symbol
 _atom_site_label
 _atom_site_symmetry_multiplicity
 _atom_site_fract_x
 _atom_site_fract_y
 _atom_site_fract_z
 _atom_site_occupancy
  Sr  Sr0  1  0.49454184  0.20978206  0.64698231  1
  Sr  Sr1  1  0.79021794  0.50545816  0.85301769  1
  Sr  Sr2  1  0.50545816  0.79021794  0.35301769  1
  Sr  Sr3  1  0.20978206  0.49454184  0.14698231  1
  In  In4  1  0.13323216  0.86676784  0.75000000  1
  In  In5  1  0.86676784  0.13323216  0.25000000  1
  Pt  Pt6  1  0.72442037  0.00086668  0.00217619  1
  Pt  Pt7  1  0.99913332  0.27557963  0.49782381  1
  Pt  Pt8  1  0.27557963  0.99913332  0.99782381  1
  Pt  Pt9  1  0.00086668  0.72442037  0.50217619  1
