# generated using pymatgen
data_In4Ag9
_symmetry_space_group_name_H-M   'P 1'
_cell_length_a   9.93978737
_cell_length_b   9.93978737
_cell_length_c   9.93978737
_cell_angle_alpha   90.00000000
_cell_angle_beta   90.00000000
_cell_angle_gamma   90.00000000
_symmetry_Int_Tables_number   1
_chemical_formula_structural   In4Ag9
_chemical_formula_sum   'In16 Ag36'
_cell_volume   982.04475952
_cell_formula_units_Z   4
loop_
 _symmetry_equiv_pos_site_id
 _symmetry_equiv_pos_as_xyz
  1  'x, y, z'
loop_
 _atom_site_type_symbol
 _atom_site_label
 _atom_site_symmetry_multiplicity
 _atom_site_fract_x
 _atom_site_fract_y
 _atom_site_fract_z
 _atom_site_occupancy
  In  In0  1  0.19000689  0.19000689  0.53434047  1
  In  In1  1  0.80999311  0.46565953  0.19000689  1
  In  In2  1  0.46565953  0.80999311  0.19000689  1
  In  In3  1  0.80999311  0.53434047  0.80999311  1
  In  In4  1  0.53434047  0.80999311  0.80999311  1
  In  In5  1  0.19000689  0.80999311  0.46565953  1
  In  In6  1  0.80999311  0.19000689  0.46565953  1
  In  In7  1  0.53434047  0.19000689  0.19000689  1
  In  In8  1  0.46565953  0.19000689  0.80999311  1
  In  In9  1  0.19000689  0.46565953  0.80999311  1
  In  In10  1  0.19000689  0.53434047  0.19000689  1
  In  In11  1  0.80999311  0.80999311  0.53434047  1
  In  In12  1  0.12227538  0.87772462  0.87772462  1
  In  In13  1  0.87772462  0.87772462  0.12227538  1
  In  In14  1  0.87772462  0.12227538  0.87772462  1
  In  In15  1  0.12227538  0.12227538  0.12227538  1
  Ag  Ag16  1  0.68273669  0.68273669  0.02971219  1
  Ag  Ag17  1  0.31726331  0.97028781  0.68273669  1
  Ag  Ag18  1  0.97028781  0.31726331  0.68273669  1
  Ag  Ag19  1  0.31726331  0.02971219  0.31726331  1
  Ag  Ag20  1  0.02971219  0.31726331  0.31726331  1
  Ag  Ag21  1  0.68273669  0.31726331  0.97028781  1
  Ag  Ag22  1  0.31726331  0.68273669  0.97028781  1
  Ag  Ag23  1  0.02971219  0.68273669  0.68273669  1
  Ag  Ag24  1  0.97028781  0.68273669  0.31726331  1
  Ag  Ag25  1  0.68273669  0.97028781  0.31726331  1
  Ag  Ag26  1  0.68273669  0.02971219  0.68273669  1
  Ag  Ag27  1  0.31726331  0.31726331  0.02971219  1
  Ag  Ag28  1  0.50000000  0.50000000  0.14388377  1
  Ag  Ag29  1  0.85611623  0.50000000  0.50000000  1
  Ag  Ag30  1  0.14388377  0.50000000  0.50000000  1
  Ag  Ag31  1  0.50000000  0.14388377  0.50000000  1
  Ag  Ag32  1  0.60484466  0.60484466  0.60484466  1
  Ag  Ag33  1  0.39515534  0.60484466  0.39515534  1
  Ag  Ag34  1  0.39515534  0.39515534  0.60484466  1
  Ag  Ag35  1  0.60484466  0.39515534  0.39515534  1
  Ag  Ag36  1  0.82947562  0.82947562  0.82947562  1
  Ag  Ag37  1  0.17052438  0.82947562  0.17052438  1
  Ag  Ag38  1  0.17052438  0.17052438  0.82947562  1
  Ag  Ag39  1  0.82947562  0.17052438  0.17052438  1
  Ag  Ag40  1  0.32497906  0.32497906  0.32497906  1
  Ag  Ag41  1  0.67502094  0.32497906  0.67502094  1
  Ag  Ag42  1  0.67502094  0.67502094  0.32497906  1
  Ag  Ag43  1  0.32497906  0.67502094  0.67502094  1
  Ag  Ag44  1  0.00000000  -0.00000000  0.35681135  1
  Ag  Ag45  1  0.00000000  0.35681135  0.00000000  1
  Ag  Ag46  1  0.00000000  0.64318865  0.00000000  1
  Ag  Ag47  1  0.64318865  -0.00000000  0.00000000  1
  Ag  Ag48  1  0.35681135  -0.00000000  0.00000000  1
  Ag  Ag49  1  0.00000000  -0.00000000  0.64318865  1
  Ag  Ag50  1  0.50000000  0.50000000  0.85611623  1
  Ag  Ag51  1  0.50000000  0.85611623  0.50000000  1
