# generated using pymatgen
data_SrIn4
_symmetry_space_group_name_H-M   'P 1'
_cell_length_a   6.97132211
_cell_length_b   6.97132211
_cell_length_c   6.97132211
_cell_angle_alpha   138.61255778
_cell_angle_beta   138.61255778
_cell_angle_gamma   59.96612131
_symmetry_Int_Tables_number   1
_chemical_formula_structural   SrIn4
_chemical_formula_sum   'Sr1 In4'
_cell_volume   146.58018162
_cell_formula_units_Z   1
loop_
 _symmetry_equiv_pos_site_id
 _symmetry_equiv_pos_as_xyz
  1  'x, y, z'
loop_
 _atom_site_type_symbol
 _atom_site_label
 _atom_site_symmetry_multiplicity
 _atom_site_fract_x
 _atom_site_fract_y
 _atom_site_fract_z
 _atom_site_occupancy
  Sr  Sr0  1  0.00000000  -0.00000000  -0.00000000  1
  In  In1  1  0.25000000  0.75000000  0.50000000  1
  In  In2  1  0.75000000  0.25000000  0.50000000  1
  In  In3  1  0.38488806  0.38488806  0.00000000  1
  In  In4  1  0.61511194  0.61511194  -0.00000000  1
