# generated using pymatgen
data_TmCrO4
_symmetry_space_group_name_H-M   'P 1'
_cell_length_a   5.84028855
_cell_length_b   5.84032548
_cell_length_c   5.83995115
_cell_angle_alpha   106.27282636
_cell_angle_beta   106.28112879
_cell_angle_gamma   116.06974813
_symmetry_Int_Tables_number   1
_chemical_formula_structural   TmCrO4
_chemical_formula_sum   'Tm2 Cr2 O8'
_cell_volume   151.79585311
_cell_formula_units_Z   2
loop_
 _symmetry_equiv_pos_site_id
 _symmetry_equiv_pos_as_xyz
  1  'x, y, z'
loop_
 _atom_site_type_symbol
 _atom_site_label
 _atom_site_symmetry_multiplicity
 _atom_site_fract_x
 _atom_site_fract_y
 _atom_site_fract_z
 _atom_site_occupancy
  Tm  Tm0  1  0.12501139  0.87500971  0.24999955  1
  Tm  Tm1  1  0.87498499  0.12499083  0.75000004  1
  Cr  Cr2  1  0.37501536  0.62501352  0.75000282  1
  Cr  Cr3  1  0.62498483  0.37499481  0.25000749  1
  O  O4  1  0.80627959  0.73692318  0.43962430  1
  O  O5  1  0.36662858  0.80625539  0.56936816  1
  O  O6  1  0.73689919  0.79727192  0.93062398  1
  O  O7  1  0.79729063  0.36665408  0.06036961  1
  O  O8  1  0.63334833  0.20276598  0.43963607  1
  O  O9  1  0.20269284  0.26305620  0.56933620  1
  O  O10  1  0.19373969  0.63336722  0.93067424  1
  O  O11  1  0.26312358  0.19369917  0.06035853  1
