# generated using pymatgen
data_Ba2Pb
_symmetry_space_group_name_H-M   'P 1'
_cell_length_a   5.75521062
_cell_length_b   8.90100294
_cell_length_c   10.74270703
_cell_angle_alpha   90.00000000
_cell_angle_beta   90.00000000
_cell_angle_gamma   90.00000000
_symmetry_Int_Tables_number   1
_chemical_formula_structural   Ba2Pb
_chemical_formula_sum   'Ba8 Pb4'
_cell_volume   550.31822843
_cell_formula_units_Z   4
loop_
 _symmetry_equiv_pos_site_id
 _symmetry_equiv_pos_as_xyz
  1  'x, y, z'
loop_
 _atom_site_type_symbol
 _atom_site_label
 _atom_site_symmetry_multiplicity
 _atom_site_fract_x
 _atom_site_fract_y
 _atom_site_fract_z
 _atom_site_occupancy
  Ba  Ba0  1  0.25000000  0.51943755  0.82132223  1
  Ba  Ba1  1  0.75000000  0.48056245  0.17867777  1
  Ba  Ba2  1  0.25000000  0.01943755  0.67867777  1
  Ba  Ba3  1  0.75000000  0.98056245  0.32132223  1
  Ba  Ba4  1  0.75000000  0.84573511  0.92050024  1
  Ba  Ba5  1  0.25000000  0.15426489  0.07949976  1
  Ba  Ba6  1  0.75000000  0.34573511  0.57949976  1
  Ba  Ba7  1  0.25000000  0.65426489  0.42050024  1
  Pb  Pb8  1  0.25000000  0.74868871  0.10132313  1
  Pb  Pb9  1  0.75000000  0.25131129  0.89867687  1
  Pb  Pb10  1  0.25000000  0.24868871  0.39867687  1
  Pb  Pb11  1  0.75000000  0.75131129  0.60132313  1
