# generated using pymatgen
data_BaP3Pt2
_symmetry_space_group_name_H-M   'P 1'
_cell_length_a   5.80020833
_cell_length_b   8.37083018
_cell_length_c   11.74308985
_cell_angle_alpha   73.03026052
_cell_angle_beta   90.00000000
_cell_angle_gamma   90.00000000
_symmetry_Int_Tables_number   1
_chemical_formula_structural   BaP3Pt2
_chemical_formula_sum   'Ba4 P12 Pt8'
_cell_volume   545.33187480
_cell_formula_units_Z   4
loop_
 _symmetry_equiv_pos_site_id
 _symmetry_equiv_pos_as_xyz
  1  'x, y, z'
loop_
 _atom_site_type_symbol
 _atom_site_label
 _atom_site_symmetry_multiplicity
 _atom_site_fract_x
 _atom_site_fract_y
 _atom_site_fract_z
 _atom_site_occupancy
  Ba  Ba0  1  0.08542329  0.75980734  0.35168925  1
  Ba  Ba1  1  0.91457671  0.24019266  0.64831075  1
  Ba  Ba2  1  0.58542329  0.24019266  0.14831075  1
  Ba  Ba3  1  0.41457671  0.75980734  0.85168925  1
  P  P4  1  0.38452672  0.27610449  0.41713462  1
  P  P5  1  0.88452672  0.72389551  0.08286538  1
  P  P6  1  0.61547328  0.72389551  0.58286538  1
  P  P7  1  0.11547328  0.27610449  0.91713462  1
  P  P8  1  0.87952381  0.06966475  0.43064764  1
  P  P9  1  0.37952381  0.93033525  0.06935236  1
  P  P10  1  0.12047619  0.93033525  0.56935236  1
  P  P11  1  0.84804082  0.45514610  0.82594858  1
  P  P12  1  0.65195918  0.45514610  0.32594858  1
  P  P13  1  0.15195918  0.54485390  0.17405142  1
  P  P14  1  0.34804082  0.54485390  0.67405142  1
  P  P15  1  0.62047619  0.06966475  0.93064764  1
  Pt  Pt16  1  0.50000000  -0.00000000  0.50000000  1
  Pt  Pt17  1  -0.00000000  0.50000000  -0.00000000  1
  Pt  Pt18  1  0.50000000  0.50000000  0.50000000  1
  Pt  Pt19  1  -0.00000000  -0.00000000  -0.00000000  1
  Pt  Pt20  1  0.48376762  0.33863577  0.83858359  1
  Pt  Pt21  1  0.98376762  0.66136423  0.66141641  1
  Pt  Pt22  1  0.51623238  0.66136423  0.16141641  1
  Pt  Pt23  1  0.01623238  0.33863577  0.33858359  1
