# generated using pymatgen
data_Sm(FeGe)2
_symmetry_space_group_name_H-M   'P 1'
_cell_length_a   6.13218011
_cell_length_b   6.13218011
_cell_length_c   6.13218011
_cell_angle_alpha   142.23395029
_cell_angle_beta   142.23395029
_cell_angle_gamma   54.47655082
_symmetry_Int_Tables_number   1
_chemical_formula_structural   Sm(FeGe)2
_chemical_formula_sum   'Sm1 Fe2 Ge2'
_cell_volume   85.89684429
_cell_formula_units_Z   1
loop_
 _symmetry_equiv_pos_site_id
 _symmetry_equiv_pos_as_xyz
  1  'x, y, z'
loop_
 _atom_site_type_symbol
 _atom_site_label
 _atom_site_symmetry_multiplicity
 _atom_site_fract_x
 _atom_site_fract_y
 _atom_site_fract_z
 _atom_site_occupancy
  Sm  Sm0  1  0.00000000  -0.00000000  0.00000000  1
  Fe  Fe1  1  0.75000000  0.25000000  0.50000000  1
  Fe  Fe2  1  0.25000000  0.75000000  0.50000000  1
  Ge  Ge3  1  0.61628920  0.61628920  -0.00000000  1
  Ge  Ge4  1  0.38371080  0.38371080  0.00000000  1
