# generated using pymatgen
data_NdHSO5
_symmetry_space_group_name_H-M   'P 1'
_cell_length_a   12.44576351
_cell_length_b   4.48008198
_cell_length_c   7.03219470
_cell_angle_alpha   68.64427749
_cell_angle_beta   90.00000000
_cell_angle_gamma   90.00000000
_symmetry_Int_Tables_number   1
_chemical_formula_structural   NdHSO5
_chemical_formula_sum   'Nd4 H4 S4 O20'
_cell_volume   365.17874112
_cell_formula_units_Z   4
loop_
 _symmetry_equiv_pos_site_id
 _symmetry_equiv_pos_as_xyz
  1  'x, y, z'
loop_
 _atom_site_type_symbol
 _atom_site_label
 _atom_site_symmetry_multiplicity
 _atom_site_fract_x
 _atom_site_fract_y
 _atom_site_fract_z
 _atom_site_occupancy
  Nd  Nd0  1  0.56411589  0.33596050  0.30189324  1
  Nd  Nd1  1  0.06411589  0.66403950  0.19810676  1
  Nd  Nd2  1  0.43588411  0.66403950  0.69810676  1
  Nd  Nd3  1  0.93588411  0.33596050  0.80189324  1
  H  H4  1  0.34435941  0.29014143  0.47472765  1
  H  H5  1  0.84435941  0.70985857  0.02527235  1
  H  H6  1  0.65564059  0.70985857  0.52527235  1
  H  H7  1  0.15564059  0.29014143  0.97472765  1
  S  S8  1  0.64560657  0.09402308  0.88737520  1
  S  S9  1  0.14560657  0.90597692  0.61262480  1
  S  S10  1  0.35439343  0.90597692  0.11262480  1
  S  S11  1  0.85439343  0.09402308  0.38737520  1
  O  O12  1  0.41422226  0.26395485  0.54123305  1
  O  O13  1  0.91422226  0.73604515  0.95876695  1
  O  O14  1  0.58577774  0.73604515  0.45876695  1
  O  O15  1  0.08577774  0.26395485  0.04123305  1
  O  O16  1  0.83434960  0.80040556  0.56105746  1
  O  O17  1  0.33434960  0.19959444  0.93894254  1
  O  O18  1  0.16565040  0.19959444  0.43894254  1
  O  O19  1  0.66565040  0.80040556  0.06105746  1
  O  O20  1  0.90361112  0.02839094  0.21617248  1
  O  O21  1  0.40361112  0.97160906  0.28382752  1
  O  O22  1  0.09638888  0.97160906  0.78382752  1
  O  O23  1  0.59638888  0.02839094  0.71617248  1
  O  O24  1  0.93133514  0.29993896  0.44992338  1
  O  O25  1  0.43133514  0.70006104  0.05007662  1
  O  O26  1  0.06866486  0.70006104  0.55007662  1
  O  O27  1  0.56866486  0.29993896  0.94992338  1
  O  O28  1  0.75456333  0.27188705  0.31958959  1
  O  O29  1  0.25456333  0.72811295  0.18041041  1
  O  O30  1  0.24543667  0.72811295  0.68041041  1
  O  O31  1  0.74543667  0.27188705  0.81958959  1
