# generated using pymatgen
data_EuTa2O6
_symmetry_space_group_name_H-M   'P 1'
_cell_length_a   3.93698252
_cell_length_b   3.93644611
_cell_length_c   7.96587918
_cell_angle_alpha   90.00000116
_cell_angle_beta   89.99999971
_cell_angle_gamma   90.01365607
_symmetry_Int_Tables_number   1
_chemical_formula_structural   EuTa2O6
_chemical_formula_sum   'Eu1 Ta2 O6'
_cell_volume   123.45295767
_cell_formula_units_Z   1
loop_
 _symmetry_equiv_pos_site_id
 _symmetry_equiv_pos_as_xyz
  1  'x, y, z'
loop_
 _atom_site_type_symbol
 _atom_site_label
 _atom_site_symmetry_multiplicity
 _atom_site_fract_x
 _atom_site_fract_y
 _atom_site_fract_z
 _atom_site_occupancy
  Eu  Eu0  1  0.00000003  -0.00000004  0.00000005  1
  Ta  Ta1  1  0.49999989  0.50000002  0.26000509  1
  Ta  Ta2  1  0.49999998  0.49999998  0.73999491  1
  O  O3  1  0.49999990  0.49999999  0.50000001  1
  O  O4  1  0.49999989  0.50000002  -0.00000001  1
  O  O5  1  -0.00000005  0.49999997  0.76973678  1
  O  O6  1  0.50000019  0.00000000  0.23030198  1
  O  O7  1  0.50000023  -0.00000000  0.76969800  1
  O  O8  1  -0.00000006  0.50000006  0.23026319  1
