# generated using pymatgen
data_Zn(BIr)2
_symmetry_space_group_name_H-M   'P 1'
_cell_length_a   2.97486797
_cell_length_b   2.97486888
_cell_length_c   6.64538098
_cell_angle_alpha   102.93408676
_cell_angle_beta   102.93409427
_cell_angle_gamma   89.99997813
_symmetry_Int_Tables_number   1
_chemical_formula_structural   Zn(BIr)2
_chemical_formula_sum   'Zn1 B2 Ir2'
_cell_volume   55.78641645
_cell_formula_units_Z   1
loop_
 _symmetry_equiv_pos_site_id
 _symmetry_equiv_pos_as_xyz
  1  'x, y, z'
loop_
 _atom_site_type_symbol
 _atom_site_label
 _atom_site_symmetry_multiplicity
 _atom_site_fract_x
 _atom_site_fract_y
 _atom_site_fract_z
 _atom_site_occupancy
  Zn  Zn0  1  0.00000000  0.00000000  0.00000000  1
  B  B1  1  0.75000000  0.25000000  0.50000000  1
  B  B2  1  0.25000000  0.75000000  0.50000000  1
  Ir  Ir3  1  0.37322633  0.37322633  0.74645367  1
  Ir  Ir4  1  0.62677367  0.62677367  0.25354633  1
