# generated using pymatgen
data_NdSnPd
_symmetry_space_group_name_H-M   'P 1'
_cell_length_a   4.70378219
_cell_length_b   7.50901360
_cell_length_c   7.99734730
_cell_angle_alpha   90.00000000
_cell_angle_beta   89.99998000
_cell_angle_gamma   90.00000000
_symmetry_Int_Tables_number   1
_chemical_formula_structural   NdSnPd
_chemical_formula_sum   'Nd4 Sn4 Pd4'
_cell_volume   282.47242010
_cell_formula_units_Z   4
loop_
 _symmetry_equiv_pos_site_id
 _symmetry_equiv_pos_as_xyz
  1  'x, y, z'
loop_
 _atom_site_type_symbol
 _atom_site_label
 _atom_site_symmetry_multiplicity
 _atom_site_fract_x
 _atom_site_fract_y
 _atom_site_fract_z
 _atom_site_occupancy
  Nd  Nd0  1  0.25000000  0.48852198  0.29694149  1
  Nd  Nd1  1  0.75000000  0.51147802  0.70305851  1
  Nd  Nd2  1  0.25000000  0.98852198  0.20305951  1
  Nd  Nd3  1  0.75000000  0.01147802  0.79694049  1
  Sn  Sn4  1  0.25000000  0.81072049  0.58750253  1
  Sn  Sn5  1  0.75000000  0.68927951  0.08750253  1
  Sn  Sn6  1  0.25000000  0.31072049  0.91249747  1
  Sn  Sn7  1  0.75000000  0.18927951  0.41249747  1
  Pd  Pd8  1  0.75000000  0.30039594  0.08410968  1
  Pd  Pd9  1  0.25000000  0.19960406  0.58410968  1
  Pd  Pd10  1  0.75000000  0.80039594  0.41589032  1
  Pd  Pd11  1  0.25000000  0.69960406  0.91589032  1
