# generated using pymatgen
data_CaInRh
_symmetry_space_group_name_H-M   'P 1'
_cell_length_a   4.35602617
_cell_length_b   7.30703061
_cell_length_c   8.25971457
_cell_angle_alpha   90.00000000
_cell_angle_beta   90.00000000
_cell_angle_gamma   90.00000000
_symmetry_Int_Tables_number   1
_chemical_formula_structural   CaInRh
_chemical_formula_sum   'Ca4 In4 Rh4'
_cell_volume   262.90354768
_cell_formula_units_Z   4
loop_
 _symmetry_equiv_pos_site_id
 _symmetry_equiv_pos_as_xyz
  1  'x, y, z'
loop_
 _atom_site_type_symbol
 _atom_site_label
 _atom_site_symmetry_multiplicity
 _atom_site_fract_x
 _atom_site_fract_y
 _atom_site_fract_z
 _atom_site_occupancy
  Ca  Ca0  1  0.75000000  0.97474484  0.32325922  1
  Ca  Ca1  1  0.25000000  0.02525516  0.67674078  1
  Ca  Ca2  1  0.75000000  0.47474484  0.17674078  1
  Ca  Ca3  1  0.25000000  0.52525516  0.82325922  1
  In  In4  1  0.75000000  0.84967782  0.93345032  1
  In  In5  1  0.25000000  0.15032218  0.06654968  1
  In  In6  1  0.75000000  0.34967782  0.56654968  1
  In  In7  1  0.25000000  0.65032218  0.43345032  1
  Rh  Rh8  1  0.75000000  0.72277101  0.62175874  1
  Rh  Rh9  1  0.25000000  0.27722899  0.37824126  1
  Rh  Rh10  1  0.75000000  0.22277101  0.87824126  1
  Rh  Rh11  1  0.25000000  0.77722899  0.12175874  1
