# generated using pymatgen
data_Tb(GeRu)2
_symmetry_space_group_name_H-M   'P 1'
_cell_length_a   4.23796335
_cell_length_b   4.23796289
_cell_length_c   5.75957947
_cell_angle_alpha   111.58649315
_cell_angle_beta   111.58650269
_cell_angle_gamma   89.99999953
_symmetry_Int_Tables_number   1
_chemical_formula_structural   Tb(GeRu)2
_chemical_formula_sum   'Tb1 Ge2 Ru2'
_cell_volume   88.33963533
_cell_formula_units_Z   1
loop_
 _symmetry_equiv_pos_site_id
 _symmetry_equiv_pos_as_xyz
  1  'x, y, z'
loop_
 _atom_site_type_symbol
 _atom_site_label
 _atom_site_symmetry_multiplicity
 _atom_site_fract_x
 _atom_site_fract_y
 _atom_site_fract_z
 _atom_site_occupancy
  Tb  Tb0  1  0.00000000  0.00000000  0.00000000  1
  Ge  Ge1  1  0.36911036  0.36911036  0.73822273  1
  Ge  Ge2  1  0.63088964  0.63088964  0.26177727  1
  Ru  Ru3  1  0.25000000  0.75000000  0.50000000  1
  Ru  Ru4  1  0.75000000  0.25000000  0.50000000  1
