# generated using pymatgen
data_K(BH)6
_symmetry_space_group_name_H-M   'P 1'
_cell_length_a   7.45122014
_cell_length_b   7.45122014
_cell_length_c   7.45122014
_cell_angle_alpha   60.00000000
_cell_angle_beta   60.00000000
_cell_angle_gamma   60.00000000
_symmetry_Int_Tables_number   1
_chemical_formula_structural   K(BH)6
_chemical_formula_sum   'K2 B12 H12'
_cell_volume   292.52782745
_cell_formula_units_Z   2
loop_
 _symmetry_equiv_pos_site_id
 _symmetry_equiv_pos_as_xyz
  1  'x, y, z'
loop_
 _atom_site_type_symbol
 _atom_site_label
 _atom_site_symmetry_multiplicity
 _atom_site_fract_x
 _atom_site_fract_y
 _atom_site_fract_z
 _atom_site_occupancy
  K  K0  1  0.75000000  0.75000000  0.75000000  1
  K  K1  1  0.25000000  0.25000000  0.25000000  1
  B  B2  1  0.94721950  0.77956934  0.05278050  1
  B  B3  1  0.77956934  0.94721950  0.22043066  1
  B  B4  1  0.77956934  0.22043066  0.05278050  1
  B  B5  1  0.77956934  0.05278050  0.94721950  1
  B  B6  1  0.22043066  0.77956934  0.94721950  1
  B  B7  1  0.05278050  0.94721950  0.77956934  1
  B  B8  1  0.05278050  0.77956934  0.22043066  1
  B  B9  1  0.22043066  0.94721950  0.05278050  1
  B  B10  1  0.94721950  0.05278050  0.22043066  1
  B  B11  1  0.05278050  0.22043066  0.94721950  1
  B  B12  1  0.22043066  0.05278050  0.77956934  1
  B  B13  1  0.94721950  0.22043066  0.77956934  1
  H  H14  1  0.62396803  0.90712999  0.37603197  1
  H  H15  1  0.90712999  0.62396803  0.09287001  1
  H  H16  1  0.62396803  0.37603197  0.09287001  1
  H  H17  1  0.62396803  0.09287001  0.90712999  1
  H  H18  1  0.37603197  0.62396803  0.90712999  1
  H  H19  1  0.09287001  0.90712999  0.62396803  1
  H  H20  1  0.09287001  0.62396803  0.37603197  1
  H  H21  1  0.37603197  0.90712999  0.09287001  1
  H  H22  1  0.90712999  0.09287001  0.37603197  1
  H  H23  1  0.09287001  0.37603197  0.90712999  1
  H  H24  1  0.37603197  0.09287001  0.62396803  1
  H  H25  1  0.90712999  0.37603197  0.62396803  1
