# generated using pymatgen
data_Cu(IO3)2
_symmetry_space_group_name_H-M   'P 1'
_cell_length_a   5.04898291
_cell_length_b   5.57771710
_cell_length_c   9.28444231
_cell_angle_alpha   96.67045100
_cell_angle_beta   90.00000029
_cell_angle_gamma   89.99913200
_symmetry_Int_Tables_number   1
_chemical_formula_structural   Cu(IO3)2
_chemical_formula_sum   'Cu2 I4 O12'
_cell_volume   259.69664285
_cell_formula_units_Z   2
loop_
 _symmetry_equiv_pos_site_id
 _symmetry_equiv_pos_as_xyz
  1  'x, y, z'
loop_
 _atom_site_type_symbol
 _atom_site_label
 _atom_site_symmetry_multiplicity
 _atom_site_fract_x
 _atom_site_fract_y
 _atom_site_fract_z
 _atom_site_occupancy
  Cu  Cu0  1  0.59599474  0.78134195  0.25428488  1
  Cu  Cu1  1  0.09598367  0.21866352  0.74571895  1
  I  I2  1  0.50493392  0.26591332  0.06810064  1
  I  I3  1  0.00495255  0.73409836  0.93190960  1
  I  I4  1  0.01709090  0.25826422  0.40214603  1
  I  I5  1  0.51707113  0.74172633  0.59784445  1
  O  O6  1  0.34718678  0.45515014  0.58649165  1
  O  O7  1  0.84720417  0.54484760  0.41350916  1
  O  O8  1  0.39661014  0.85811715  0.43376514  1
  O  O9  1  0.89662734  0.14188211  0.56622594  1
  O  O10  1  0.27783122  0.90721259  0.72295636  1
  O  O11  1  0.77785069  0.09278478  0.27703842  1
  O  O12  1  0.79432869  0.65351652  0.08034689  1
  O  O13  1  0.29433173  0.34649150  0.91965286  1
  O  O14  1  0.86907103  0.50228580  0.79505359  1
  O  O15  1  0.36906830  0.49772009  0.20495008  1
  O  O16  1  0.80635268  0.97965784  0.87998594  1
  O  O17  1  0.30635033  0.02032719  0.12001839  1
