# generated using pymatgen
data_NbNiP2
_symmetry_space_group_name_H-M   'P 1'
_cell_length_a   3.34739576
_cell_length_b   5.39747175
_cell_length_c   12.22640785
_cell_angle_alpha   90.00000000
_cell_angle_beta   90.00000000
_cell_angle_gamma   90.00000000
_symmetry_Int_Tables_number   1
_chemical_formula_structural   NbNiP2
_chemical_formula_sum   'Nb4 Ni4 P8'
_cell_volume   220.90030656
_cell_formula_units_Z   4
loop_
 _symmetry_equiv_pos_site_id
 _symmetry_equiv_pos_as_xyz
  1  'x, y, z'
loop_
 _atom_site_type_symbol
 _atom_site_label
 _atom_site_symmetry_multiplicity
 _atom_site_fract_x
 _atom_site_fract_y
 _atom_site_fract_z
 _atom_site_occupancy
  Nb  Nb0  1  0.75000000  0.98722432  0.82983916  1
  Nb  Nb1  1  0.25000000  0.01277568  0.17016084  1
  Nb  Nb2  1  0.75000000  0.48722432  0.67016084  1
  Nb  Nb3  1  0.25000000  0.51277568  0.32983916  1
  Ni  Ni4  1  0.25000000  0.51574288  0.08550522  1
  Ni  Ni5  1  0.25000000  0.01574288  0.41449478  1
  Ni  Ni6  1  0.75000000  0.48425712  0.91449478  1
  Ni  Ni7  1  0.75000000  0.98425712  0.58550522  1
  P  P8  1  0.25000000  0.69671517  0.53711380  1
  P  P9  1  0.75000000  0.30328483  0.46288620  1
  P  P10  1  0.25000000  0.19671517  0.96288620  1
  P  P11  1  0.75000000  0.80328483  0.03711380  1
  P  P12  1  0.25000000  0.63829199  0.81010085  1
  P  P13  1  0.75000000  0.86170801  0.31010085  1
  P  P14  1  0.25000000  0.13829199  0.68989915  1
  P  P15  1  0.75000000  0.36170801  0.18989915  1
