# generated using pymatgen
data_Mg(BiO3)2
_symmetry_space_group_name_H-M   'P 1'
_cell_length_a   4.85468882
_cell_length_b   4.85468882
_cell_length_c   9.81484282
_cell_angle_alpha   90.00000000
_cell_angle_beta   90.00000000
_cell_angle_gamma   90.00000000
_symmetry_Int_Tables_number   1
_chemical_formula_structural   Mg(BiO3)2
_chemical_formula_sum   'Mg2 Bi4 O12'
_cell_volume   231.31625032
_cell_formula_units_Z   2
loop_
 _symmetry_equiv_pos_site_id
 _symmetry_equiv_pos_as_xyz
  1  'x, y, z'
loop_
 _atom_site_type_symbol
 _atom_site_label
 _atom_site_symmetry_multiplicity
 _atom_site_fract_x
 _atom_site_fract_y
 _atom_site_fract_z
 _atom_site_occupancy
  Mg  Mg0  1  -0.00000000  0.00000000  0.00000000  1
  Mg  Mg1  1  0.50000000  0.50000000  0.50000000  1
  Bi  Bi2  1  0.50000000  0.50000000  0.83320869  1
  Bi  Bi3  1  -0.00000000  0.00000000  0.33320869  1
  Bi  Bi4  1  0.50000000  0.50000000  0.16679131  1
  Bi  Bi5  1  -0.00000000  0.00000000  0.66679131  1
  O  O6  1  0.69182447  0.69182447  0.66479149  1
  O  O7  1  0.30817553  0.30817553  0.66479149  1
  O  O8  1  0.69182447  0.69182447  0.33520851  1
  O  O9  1  0.19182447  0.80817553  0.16479149  1
  O  O10  1  0.80817553  0.19182447  0.16479149  1
  O  O11  1  0.80817553  0.19182447  0.83520851  1
  O  O12  1  0.30233672  0.30233672  0.00000000  1
  O  O13  1  0.19766328  0.80233672  0.50000000  1
  O  O14  1  0.80233672  0.19766328  0.50000000  1
  O  O15  1  0.69766328  0.69766328  0.00000000  1
  O  O16  1  0.30817553  0.30817553  0.33520851  1
  O  O17  1  0.19182447  0.80817553  0.83520851  1
