# generated using pymatgen
data_UI3
_symmetry_space_group_name_H-M   'P 1'
_cell_length_a   4.33960290
_cell_length_b   7.64774081
_cell_length_c   10.09795607
_cell_angle_alpha   90.00000000
_cell_angle_beta   90.00000000
_cell_angle_gamma   106.48221769
_symmetry_Int_Tables_number   1
_chemical_formula_structural   UI3
_chemical_formula_sum   'U2 I6'
_cell_volume   321.36124124
_cell_formula_units_Z   2
loop_
 _symmetry_equiv_pos_site_id
 _symmetry_equiv_pos_as_xyz
  1  'x, y, z'
loop_
 _atom_site_type_symbol
 _atom_site_label
 _atom_site_symmetry_multiplicity
 _atom_site_fract_x
 _atom_site_fract_y
 _atom_site_fract_z
 _atom_site_occupancy
  U  U0  1  0.73898160  0.47796120  0.25000000  1
  U  U1  1  0.26101840  0.52203880  0.75000000  1
  I  I2  1  0.34974556  0.69949111  0.43199087  1
  I  I3  1  0.65025444  0.30050889  0.56800913  1
  I  I4  1  0.91721937  0.83443875  0.75000000  1
  I  I5  1  0.08278063  0.16556125  0.25000000  1
  I  I6  1  0.34974556  0.69949111  0.06800913  1
  I  I7  1  0.65025444  0.30050889  0.93199087  1
