# generated using pymatgen
data_Te2Ru
_symmetry_space_group_name_H-M   'P 1'
_cell_length_a   4.04135573
_cell_length_b   5.33087547
_cell_length_c   6.43748384
_cell_angle_alpha   90.00000000
_cell_angle_beta   90.00000000
_cell_angle_gamma   90.00000000
_symmetry_Int_Tables_number   1
_chemical_formula_structural   Te2Ru
_chemical_formula_sum   'Te4 Ru2'
_cell_volume   138.68892091
_cell_formula_units_Z   2
loop_
 _symmetry_equiv_pos_site_id
 _symmetry_equiv_pos_as_xyz
  1  'x, y, z'
loop_
 _atom_site_type_symbol
 _atom_site_label
 _atom_site_symmetry_multiplicity
 _atom_site_fract_x
 _atom_site_fract_y
 _atom_site_fract_z
 _atom_site_occupancy
  Te  Te0  1  0.00000000  0.21980959  0.36690785  1
  Te  Te1  1  -0.00000000  0.78019041  0.63309215  1
  Te  Te2  1  0.50000000  0.71980959  0.13309215  1
  Te  Te3  1  0.50000000  0.28019041  0.86690785  1
  Ru  Ru4  1  -0.00000000  0.00000000  -0.00000000  1
  Ru  Ru5  1  0.50000000  0.50000000  0.50000000  1
