# generated using pymatgen
data_RbCuCl3
_symmetry_space_group_name_H-M   'P 1'
_cell_length_a   6.22716955
_cell_length_b   7.04645449
_cell_length_c   11.80800118
_cell_angle_alpha   90.00000000
_cell_angle_beta   90.00000000
_cell_angle_gamma   90.00000000
_symmetry_Int_Tables_number   1
_chemical_formula_structural   RbCuCl3
_chemical_formula_sum   'Rb4 Cu4 Cl12'
_cell_volume   518.12879617
_cell_formula_units_Z   4
loop_
 _symmetry_equiv_pos_site_id
 _symmetry_equiv_pos_as_xyz
  1  'x, y, z'
loop_
 _atom_site_type_symbol
 _atom_site_label
 _atom_site_symmetry_multiplicity
 _atom_site_fract_x
 _atom_site_fract_y
 _atom_site_fract_z
 _atom_site_occupancy
  Rb  Rb0  1  0.25000000  0.50000000  0.83836142  1
  Rb  Rb1  1  0.75000000  0.00000000  0.66163858  1
  Rb  Rb2  1  0.75000000  0.50000000  0.16163858  1
  Rb  Rb3  1  0.25000000  0.00000000  0.33836142  1
  Cu  Cu4  1  0.50000000  0.00000000  0.00000000  1
  Cu  Cu5  1  0.00000000  0.50000000  0.50000000  1
  Cu  Cu6  1  0.50000000  0.50000000  0.50000000  1
  Cu  Cu7  1  0.00000000  0.00000000  0.00000000  1
  Cl  Cl8  1  0.75000000  0.50000000  0.64754433  1
  Cl  Cl9  1  0.25000000  0.00000000  0.85245567  1
  Cl  Cl10  1  0.25000000  0.50000000  0.35245567  1
  Cl  Cl11  1  0.75000000  0.00000000  0.14754433  1
  Cl  Cl12  1  0.68276358  0.75776770  0.91415709  1
  Cl  Cl13  1  0.18276358  0.74223230  0.58584291  1
  Cl  Cl14  1  0.31723642  0.25776770  0.58584291  1
  Cl  Cl15  1  0.81723642  0.24223230  0.91415709  1
  Cl  Cl16  1  0.18276358  0.75776770  0.08584291  1
  Cl  Cl17  1  0.68276358  0.74223230  0.41415709  1
  Cl  Cl18  1  0.81723642  0.25776770  0.41415709  1
  Cl  Cl19  1  0.31723642  0.24223230  0.08584291  1
