# generated using pymatgen
data_GdRh2
_symmetry_space_group_name_H-M   'P 1'
_cell_length_a   5.32546495
_cell_length_b   5.32545910
_cell_length_c   5.32545911
_cell_angle_alpha   60.00001310
_cell_angle_beta   60.00000611
_cell_angle_gamma   59.99994488
_symmetry_Int_Tables_number   1
_chemical_formula_structural   GdRh2
_chemical_formula_sum   'Gd2 Rh4'
_cell_volume   106.79637776
_cell_formula_units_Z   2
loop_
 _symmetry_equiv_pos_site_id
 _symmetry_equiv_pos_as_xyz
  1  'x, y, z'
loop_
 _atom_site_type_symbol
 _atom_site_label
 _atom_site_symmetry_multiplicity
 _atom_site_fract_x
 _atom_site_fract_y
 _atom_site_fract_z
 _atom_site_occupancy
  Gd  Gd0  1  0.12500000  0.12499900  0.12500000  1
  Gd  Gd1  1  0.87500000  0.87500100  0.87500000  1
  Rh  Rh2  1  0.50000000  -0.00000000  0.50000000  1
  Rh  Rh3  1  0.00000000  0.50000000  0.50000000  1
  Rh  Rh4  1  0.50000000  0.50000000  0.50000000  1
  Rh  Rh5  1  0.50000000  0.50000000  -0.00000000  1
