# generated using pymatgen
data_Eu(MnP)2
_symmetry_space_group_name_H-M   'P 1'
_cell_length_a   3.90985082
_cell_length_b   3.90985089
_cell_length_c   6.91392092
_cell_angle_alpha   90.00000000
_cell_angle_beta   90.00000000
_cell_angle_gamma   119.99998981
_symmetry_Int_Tables_number   1
_chemical_formula_structural   Eu(MnP)2
_chemical_formula_sum   'Eu1 Mn2 P2'
_cell_volume   91.53253000
_cell_formula_units_Z   1
loop_
 _symmetry_equiv_pos_site_id
 _symmetry_equiv_pos_as_xyz
  1  'x, y, z'
loop_
 _atom_site_type_symbol
 _atom_site_label
 _atom_site_symmetry_multiplicity
 _atom_site_fract_x
 _atom_site_fract_y
 _atom_site_fract_z
 _atom_site_occupancy
  Eu  Eu0  1  -0.00000000  -0.00000000  -0.00000000  1
  Mn  Mn1  1  0.66666700  0.33333300  0.61677629  1
  Mn  Mn2  1  0.33333300  0.66666700  0.38322371  1
  P  P3  1  0.66666700  0.33333300  0.27851920  1
  P  P4  1  0.33333300  0.66666700  0.72148080  1
