# generated using pymatgen
data_Y(FeGe)2
_symmetry_space_group_name_H-M   'P 1'
_cell_length_a   3.92071669
_cell_length_b   3.92071686
_cell_length_c   6.10055699
_cell_angle_alpha   108.74403830
_cell_angle_beta   108.74404709
_cell_angle_gamma   90.00001836
_symmetry_Int_Tables_number   1
_chemical_formula_structural   Y(FeGe)2
_chemical_formula_sum   'Y1 Fe2 Ge2'
_cell_volume   83.53498143
_cell_formula_units_Z   1
loop_
 _symmetry_equiv_pos_site_id
 _symmetry_equiv_pos_as_xyz
  1  'x, y, z'
loop_
 _atom_site_type_symbol
 _atom_site_label
 _atom_site_symmetry_multiplicity
 _atom_site_fract_x
 _atom_site_fract_y
 _atom_site_fract_z
 _atom_site_occupancy
  Y  Y0  1  0.00000000  0.00000000  -0.00000000  1
  Fe  Fe1  1  0.25000000  0.75000000  0.50000000  1
  Fe  Fe2  1  0.75000000  0.25000000  0.50000000  1
  Ge  Ge3  1  0.61446076  0.61446076  0.22892352  1
  Ge  Ge4  1  0.38553924  0.38553924  0.77107748  1
