# generated using pymatgen
data_Tb4Sb3
_symmetry_space_group_name_H-M   'P 1'
_cell_length_a   7.97904177
_cell_length_b   7.97904145
_cell_length_c   7.97904149
_cell_angle_alpha   109.47121804
_cell_angle_beta   109.47121728
_cell_angle_gamma   109.47122114
_symmetry_Int_Tables_number   1
_chemical_formula_structural   Tb4Sb3
_chemical_formula_sum   'Tb8 Sb6'
_cell_volume   391.04822733
_cell_formula_units_Z   2
loop_
 _symmetry_equiv_pos_site_id
 _symmetry_equiv_pos_as_xyz
  1  'x, y, z'
loop_
 _atom_site_type_symbol
 _atom_site_label
 _atom_site_symmetry_multiplicity
 _atom_site_fract_x
 _atom_site_fract_y
 _atom_site_fract_z
 _atom_site_occupancy
  Tb  Tb0  1  0.35697765  0.50000000  0.99999900  1
  Tb  Tb1  1  0.64302235  0.64302235  0.64302135  1
  Tb  Tb2  1  0.50000100  0.00000100  0.35697865  1
  Tb  Tb3  1  0.99999900  0.35697765  0.50000000  1
  Tb  Tb4  1  0.49999900  0.99999900  0.85697765  1
  Tb  Tb5  1  0.00000100  0.85697865  0.50000000  1
  Tb  Tb6  1  0.85697865  0.50000000  0.00000100  1
  Tb  Tb7  1  0.14302135  0.14302135  0.14302235  1
  Sb  Sb8  1  0.75000000  0.87500100  0.12500100  1
  Sb  Sb9  1  0.62500100  0.37500000  0.25000100  1
  Sb  Sb10  1  0.87500000  0.12500000  0.74999900  1
  Sb  Sb11  1  0.12500000  0.75000000  0.87499900  1
  Sb  Sb12  1  0.37499900  0.24999900  0.62500000  1
  Sb  Sb13  1  0.25000000  0.62500000  0.37500100  1
