# generated using pymatgen
data_LuSiIr
_symmetry_space_group_name_H-M   'P 1'
_cell_length_a   4.14875409
_cell_length_b   6.66960246
_cell_length_c   7.37449199
_cell_angle_alpha   90.00000000
_cell_angle_beta   90.00000000
_cell_angle_gamma   90.00000000
_symmetry_Int_Tables_number   1
_chemical_formula_structural   LuSiIr
_chemical_formula_sum   'Lu4 Si4 Ir4'
_cell_volume   204.05617916
_cell_formula_units_Z   4
loop_
 _symmetry_equiv_pos_site_id
 _symmetry_equiv_pos_as_xyz
  1  'x, y, z'
loop_
 _atom_site_type_symbol
 _atom_site_label
 _atom_site_symmetry_multiplicity
 _atom_site_fract_x
 _atom_site_fract_y
 _atom_site_fract_z
 _atom_site_occupancy
  Lu  Lu0  1  0.75000000  0.50526511  0.18807968  1
  Lu  Lu1  1  0.25000000  0.99473489  0.68807968  1
  Lu  Lu2  1  0.75000000  0.00526511  0.31192032  1
  Lu  Lu3  1  0.25000000  0.49473489  0.81192032  1
  Si  Si4  1  0.25000000  0.70502152  0.38580719  1
  Si  Si5  1  0.25000000  0.20502152  0.11419281  1
  Si  Si6  1  0.75000000  0.29497848  0.61419281  1
  Si  Si7  1  0.75000000  0.79497848  0.88580719  1
  Ir  Ir8  1  0.25000000  0.84134817  0.06387354  1
  Ir  Ir9  1  0.25000000  0.34134817  0.43612646  1
  Ir  Ir10  1  0.75000000  0.65865183  0.56387354  1
  Ir  Ir11  1  0.75000000  0.15865183  0.93612646  1
