# generated using pymatgen
data_SrNiN
_symmetry_space_group_name_H-M   'P 1'
_cell_length_a   5.20801615
_cell_length_b   9.08770686
_cell_length_c   13.20354408
_cell_angle_alpha   90.00000000
_cell_angle_beta   90.00000000
_cell_angle_gamma   90.00000000
_symmetry_Int_Tables_number   1
_chemical_formula_structural   SrNiN
_chemical_formula_sum   'Sr12 Ni12 N12'
_cell_volume   624.90953553
_cell_formula_units_Z   12
loop_
 _symmetry_equiv_pos_site_id
 _symmetry_equiv_pos_as_xyz
  1  'x, y, z'
loop_
 _atom_site_type_symbol
 _atom_site_label
 _atom_site_symmetry_multiplicity
 _atom_site_fract_x
 _atom_site_fract_y
 _atom_site_fract_z
 _atom_site_occupancy
  Sr  Sr0  1  0.49294551  0.49184778  0.75000000  1
  Sr  Sr1  1  0.99294551  0.00815222  0.25000000  1
  Sr  Sr2  1  0.00705449  0.99184778  0.75000000  1
  Sr  Sr3  1  0.50705449  0.50815222  0.25000000  1
  Sr  Sr4  1  0.97735307  0.33234612  0.41234518  1
  Sr  Sr5  1  0.47735307  0.16765388  0.58765482  1
  Sr  Sr6  1  0.52264693  0.83234612  0.08765482  1
  Sr  Sr7  1  0.02264693  0.66765388  0.91234518  1
  Sr  Sr8  1  0.02264693  0.66765388  0.58765482  1
  Sr  Sr9  1  0.52264693  0.83234612  0.41234518  1
  Sr  Sr10  1  0.47735307  0.16765388  0.91234518  1
  Sr  Sr11  1  0.97735307  0.33234612  0.08765482  1
  Ni  Ni12  1  0.46097470  0.15946888  0.16155903  1
  Ni  Ni13  1  0.96097470  0.34053112  0.83844097  1
  Ni  Ni14  1  0.03902530  0.65946888  0.33844097  1
  Ni  Ni15  1  0.53902530  0.84053112  0.66155903  1
  Ni  Ni16  1  0.53902530  0.84053112  0.83844097  1
  Ni  Ni17  1  0.03902530  0.65946888  0.16155903  1
  Ni  Ni18  1  0.96097470  0.34053112  0.66155903  1
  Ni  Ni19  1  0.46097470  0.15946888  0.33844097  1
  Ni  Ni20  1  -0.00000000  0.00000000  0.00000000  1
  Ni  Ni21  1  0.50000000  0.50000000  0.00000000  1
  Ni  Ni22  1  0.50000000  0.50000000  0.50000000  1
  Ni  Ni23  1  -0.00000000  0.00000000  0.50000000  1
  N  N24  1  0.30874660  0.75938956  0.75000000  1
  N  N25  1  0.80874660  0.74061044  0.25000000  1
  N  N26  1  0.19125340  0.25938956  0.75000000  1
  N  N27  1  0.69125340  0.24061044  0.25000000  1
  N  N28  1  0.23441062  0.07978128  0.42270596  1
  N  N29  1  0.73441062  0.42021872  0.57729404  1
  N  N30  1  0.26558938  0.57978128  0.07729404  1
  N  N31  1  0.76558938  0.92021872  0.92270596  1
  N  N32  1  0.76558938  0.92021872  0.57729404  1
  N  N33  1  0.26558938  0.57978128  0.42270596  1
  N  N34  1  0.73441062  0.42021872  0.92270596  1
  N  N35  1  0.23441062  0.07978128  0.07729404  1
