# generated using pymatgen
data_BaCu4S3
_symmetry_space_group_name_H-M   'P 1'
_cell_length_a   3.93612269
_cell_length_b   7.50472766
_cell_length_c   10.11123357
_cell_angle_alpha   90.00000000
_cell_angle_beta   90.00000000
_cell_angle_gamma   105.20318396
_symmetry_Int_Tables_number   1
_chemical_formula_structural   BaCu4S3
_chemical_formula_sum   'Ba2 Cu8 S6'
_cell_volume   288.22781208
_cell_formula_units_Z   2
loop_
 _symmetry_equiv_pos_site_id
 _symmetry_equiv_pos_as_xyz
  1  'x, y, z'
loop_
 _atom_site_type_symbol
 _atom_site_label
 _atom_site_symmetry_multiplicity
 _atom_site_fract_x
 _atom_site_fract_y
 _atom_site_fract_z
 _atom_site_occupancy
  Ba  Ba0  1  0.74580426  0.49160952  0.25000000  1
  Ba  Ba1  1  0.25419574  0.50839048  0.75000000  1
  Cu  Cu2  1  0.50324957  0.00650014  0.87293056  1
  Cu  Cu3  1  0.49675043  0.99349986  0.12706944  1
  Cu  Cu4  1  0.09248962  0.18497823  0.47724674  1
  Cu  Cu5  1  0.90751038  0.81502177  0.52275326  1
  Cu  Cu6  1  0.90751038  0.81502177  0.97724674  1
  Cu  Cu7  1  0.09248962  0.18497823  0.02275326  1
  Cu  Cu8  1  0.50324957  0.00650014  0.62706944  1
  Cu  Cu9  1  0.49675043  0.99349986  0.37293056  1
  S  S10  1  0.05657925  0.11315850  0.25000000  1
  S  S11  1  0.94342075  0.88684150  0.75000000  1
  S  S12  1  0.64933950  0.29867701  0.55000861  1
  S  S13  1  0.35066050  0.70132299  0.44999139  1
  S  S14  1  0.35066050  0.70132299  0.05000861  1
  S  S15  1  0.64933950  0.29867701  0.94999139  1
