# generated using pymatgen
data_MgH12SO9
_symmetry_space_group_name_H-M   'P 1'
_cell_length_a   5.86501021
_cell_length_b   5.86501021
_cell_length_c   5.86501062
_cell_angle_alpha   96.11322601
_cell_angle_beta   96.11322601
_cell_angle_gamma   96.11322269
_symmetry_Int_Tables_number   1
_chemical_formula_structural   MgH12SO9
_chemical_formula_sum   'Mg1 H12 S1 O9'
_cell_volume   198.03691629
_cell_formula_units_Z   1
loop_
 _symmetry_equiv_pos_site_id
 _symmetry_equiv_pos_as_xyz
  1  'x, y, z'
loop_
 _atom_site_type_symbol
 _atom_site_label
 _atom_site_symmetry_multiplicity
 _atom_site_fract_x
 _atom_site_fract_y
 _atom_site_fract_z
 _atom_site_occupancy
  Mg  Mg0  1  0.99138894  0.99138894  0.99138894  1
  H  H1  1  0.79538590  0.18248395  0.36624459  1
  H  H2  1  0.36624459  0.79538590  0.18248395  1
  H  H3  1  0.18248395  0.36624459  0.79538590  1
  H  H4  1  0.06134129  0.26771263  0.39961067  1
  H  H5  1  0.39961067  0.06134129  0.26771263  1
  H  H6  1  0.26771263  0.39961067  0.06134129  1
  H  H7  1  0.13127925  0.73032888  0.62137866  1
  H  H8  1  0.62137866  0.13127925  0.73032888  1
  H  H9  1  0.73032888  0.62137866  0.13127925  1
  H  H10  1  0.01919266  0.94478826  0.53269103  1
  H  H11  1  0.53269103  0.01919266  0.94478826  1
  H  H12  1  0.94478826  0.53269103  0.01919266  1
  S  S13  1  0.49650380  0.49650380  0.49650380  1
  O  O14  1  0.94552751  0.13611651  0.32735652  1
  O  O15  1  0.32735652  0.94552751  0.13611651  1
  O  O16  1  0.13611651  0.32735652  0.94552751  1
  O  O17  1  0.07143745  0.87560485  0.67120941  1
  O  O18  1  0.67120941  0.07143745  0.87560485  1
  O  O19  1  0.87560485  0.67120941  0.07143745  1
  O  O20  1  0.24484961  0.47580870  0.55217895  1
  O  O21  1  0.55217895  0.24484961  0.47580870  1
  O  O22  1  0.47580870  0.55217895  0.24484961  1
