# generated using pymatgen
data_H8S(NO2)2
_symmetry_space_group_name_H-M   'P 1'
_cell_length_a   6.46889213
_cell_length_b   7.54754840
_cell_length_c   10.58816343
_cell_angle_alpha   90.00000000
_cell_angle_beta   90.00000000
_cell_angle_gamma   90.00000000
_symmetry_Int_Tables_number   1
_chemical_formula_structural   H8S(NO2)2
_chemical_formula_sum   'H32 S4 N8 O16'
_cell_volume   516.95941865
_cell_formula_units_Z   4
loop_
 _symmetry_equiv_pos_site_id
 _symmetry_equiv_pos_as_xyz
  1  'x, y, z'
loop_
 _atom_site_type_symbol
 _atom_site_label
 _atom_site_symmetry_multiplicity
 _atom_site_fract_x
 _atom_site_fract_y
 _atom_site_fract_z
 _atom_site_occupancy
  H  H0  1  0.12065094  0.30106544  0.84119562  1
  H  H1  1  0.62065094  0.69893456  0.15880438  1
  H  H2  1  0.37934906  0.80106544  0.65880438  1
  H  H3  1  0.87934906  0.19893456  0.34119562  1
  H  H4  1  0.87934906  0.69893456  0.15880438  1
  H  H5  1  0.37934906  0.30106544  0.84119562  1
  H  H6  1  0.62065094  0.19893456  0.34119562  1
  H  H7  1  0.12065094  0.80106544  0.65880438  1
  H  H8  1  0.75000000  0.63833756  0.28828472  1
  H  H9  1  0.25000000  0.36166244  0.71171528  1
  H  H10  1  0.75000000  0.13833756  0.21171528  1
  H  H11  1  0.25000000  0.86166244  0.78828472  1
  H  H12  1  0.75000000  0.50326778  0.15602702  1
  H  H13  1  0.25000000  0.49673222  0.84397298  1
  H  H14  1  0.75000000  0.66442261  0.88282042  1
  H  H15  1  0.75000000  0.00326778  0.34397298  1
  H  H16  1  0.12178681  0.15992525  0.05666302  1
  H  H17  1  0.62178681  0.84007475  0.94333698  1
  H  H18  1  0.37821319  0.65992525  0.44333698  1
  H  H19  1  0.87821319  0.34007475  0.55666302  1
  H  H20  1  0.87821319  0.84007475  0.94333698  1
  H  H21  1  0.37821319  0.15992525  0.05666302  1
  H  H22  1  0.62178681  0.34007475  0.55666302  1
  H  H23  1  0.12178681  0.65992525  0.44333698  1
  H  H24  1  0.75000000  0.86217056  0.80568736  1
  H  H25  1  0.25000000  0.13782944  0.19431264  1
  H  H26  1  0.75000000  0.36217056  0.69431264  1
  H  H27  1  0.25000000  0.63782944  0.30568736  1
  H  H28  1  0.25000000  0.83557739  0.38282042  1
  H  H29  1  0.75000000  0.16442261  0.61717958  1
  H  H30  1  0.25000000  0.33557739  0.11717958  1
  H  H31  1  0.25000000  0.99673222  0.65602702  1
  S  S32  1  0.75000000  0.26172241  0.94004129  1
  S  S33  1  0.25000000  0.73827759  0.05995871  1
  S  S34  1  0.75000000  0.76172241  0.55995871  1
  S  S35  1  0.25000000  0.23827759  0.44004129  1
  N  N36  1  0.75000000  0.63118906  0.19135359  1
  N  N37  1  0.25000000  0.36881094  0.80864641  1
  N  N38  1  0.75000000  0.13118906  0.30864641  1
  N  N39  1  0.25000000  0.86881094  0.69135359  1
  N  N40  1  0.75000000  0.80087298  0.89295678  1
  N  N41  1  0.25000000  0.19912702  0.10704322  1
  N  N42  1  0.75000000  0.30087298  0.60704322  1
  N  N43  1  0.25000000  0.69912702  0.39295678  1
  O  O44  1  0.06276411  0.84150797  0.09215442  1
  O  O45  1  0.56276411  0.15849203  0.90784558  1
  O  O46  1  0.43723589  0.34150797  0.40784558  1
  O  O47  1  0.93723589  0.65849203  0.59215442  1
  O  O48  1  0.93723589  0.15849203  0.90784558  1
  O  O49  1  0.43723589  0.84150797  0.09215442  1
  O  O50  1  0.56276411  0.65849203  0.59215442  1
  O  O51  1  0.06276411  0.34150797  0.40784558  1
  O  O52  1  0.75000000  0.29937476  0.07718387  1
  O  O53  1  0.25000000  0.70062524  0.92281613  1
  O  O54  1  0.75000000  0.79937476  0.42281713  1
  O  O55  1  0.25000000  0.20062524  0.57718387  1
  O  O56  1  0.75000000  0.42863070  0.86652919  1
  O  O57  1  0.25000000  0.57136930  0.13347081  1
  O  O58  1  0.75000000  0.92863070  0.63347081  1
  O  O59  1  0.25000000  0.07136930  0.36652919  1
