# generated using pymatgen
data_Gd2CCl2
_symmetry_space_group_name_H-M   'P 1'
_cell_length_a   3.76522912
_cell_length_b   3.76522840
_cell_length_c   9.43428369
_cell_angle_alpha   90.00000000
_cell_angle_beta   90.00000000
_cell_angle_gamma   120.00000631
_symmetry_Int_Tables_number   1
_chemical_formula_structural   Gd2CCl2
_chemical_formula_sum   'Gd2 C1 Cl2'
_cell_volume   115.83032378
_cell_formula_units_Z   1
loop_
 _symmetry_equiv_pos_site_id
 _symmetry_equiv_pos_as_xyz
  1  'x, y, z'
loop_
 _atom_site_type_symbol
 _atom_site_label
 _atom_site_symmetry_multiplicity
 _atom_site_fract_x
 _atom_site_fract_y
 _atom_site_fract_z
 _atom_site_occupancy
  Gd  Gd0  1  0.33333300  0.66666700  0.35459685  1
  Gd  Gd1  1  0.66666700  0.33333300  0.64540315  1
  C  C2  1  -0.00000000  -0.00000000  0.50000000  1
  Cl  Cl3  1  0.33333300  0.66666700  0.83092907  1
  Cl  Cl4  1  0.66666700  0.33333300  0.16907093  1
