# generated using pymatgen
data_CaH8(ClO2)2
_symmetry_space_group_name_H-M   'P 1'
_cell_length_a   7.53497946
_cell_length_b   6.09752662
_cell_length_c   8.83398572
_cell_angle_alpha   69.59554118
_cell_angle_beta   90.00000000
_cell_angle_gamma   90.00000000
_symmetry_Int_Tables_number   1
_chemical_formula_structural   CaH8(ClO2)2
_chemical_formula_sum   'Ca2 H16 Cl4 O8'
_cell_volume   380.40846431
_cell_formula_units_Z   2
loop_
 _symmetry_equiv_pos_site_id
 _symmetry_equiv_pos_as_xyz
  1  'x, y, z'
loop_
 _atom_site_type_symbol
 _atom_site_label
 _atom_site_symmetry_multiplicity
 _atom_site_fract_x
 _atom_site_fract_y
 _atom_site_fract_z
 _atom_site_occupancy
  Ca  Ca0  1  0.50000000  0.00000000  0.50000000  1
  Ca  Ca1  1  0.00000000  0.00000000  0.00000000  1
  H  H2  1  0.43902312  0.11008064  0.80543911  1
  H  H3  1  0.93902312  0.88991936  0.69456089  1
  H  H4  1  0.56097688  0.88991936  0.19456089  1
  H  H5  1  0.06097688  0.11008064  0.30543911  1
  H  H6  1  0.56861440  0.89960713  0.85587768  1
  H  H7  1  0.06861440  0.10039287  0.64412232  1
  H  H8  1  0.43138560  0.10039287  0.14412232  1
  H  H9  1  0.93138560  0.89960713  0.35587768  1
  H  H10  1  0.26644785  0.59231933  0.51713183  1
  H  H11  1  0.76644785  0.40768067  0.98286817  1
  H  H12  1  0.73355215  0.40768067  0.48286817  1
  H  H13  1  0.23355215  0.59231933  0.01713183  1
  H  H14  1  0.78456792  0.41141637  0.80805469  1
  H  H15  1  0.28456792  0.58858363  0.69194531  1
  H  H16  1  0.71543208  0.41141637  0.30805469  1
  H  H17  1  0.21543208  0.58858363  0.19194531  1
  Cl  Cl18  1  0.78294091  0.69291986  0.57362420  1
  Cl  Cl19  1  0.28294091  0.30708014  0.92637580  1
  Cl  Cl20  1  0.21705909  0.30708014  0.42637580  1
  Cl  Cl21  1  0.71705909  0.69291986  0.07362420  1
  O  O22  1  0.50316960  0.00434893  0.76342549  1
  O  O23  1  0.00316960  0.99565107  0.73657451  1
  O  O24  1  0.49683040  0.99565107  0.23657451  1
  O  O25  1  0.99683040  0.00434893  0.26342549  1
  O  O26  1  0.29741761  0.69098592  0.57959010  1
  O  O27  1  0.79741761  0.30901408  0.92040990  1
  O  O28  1  0.70258239  0.30901408  0.42040990  1
  O  O29  1  0.20258239  0.69098592  0.07959010  1
