# generated using pymatgen
data_K3NO3
_symmetry_space_group_name_H-M   'P 1'
_cell_length_a   7.14902818
_cell_length_b   7.14902846
_cell_length_c   7.23506101
_cell_angle_alpha   119.60741575
_cell_angle_beta   119.60741370
_cell_angle_gamma   90.00000245
_symmetry_Int_Tables_number   1
_chemical_formula_structural   K3NO3
_chemical_formula_sum   'K6 N2 O6'
_cell_volume   264.54226948
_cell_formula_units_Z   2
loop_
 _symmetry_equiv_pos_site_id
 _symmetry_equiv_pos_as_xyz
  1  'x, y, z'
loop_
 _atom_site_type_symbol
 _atom_site_label
 _atom_site_symmetry_multiplicity
 _atom_site_fract_x
 _atom_site_fract_y
 _atom_site_fract_z
 _atom_site_occupancy
  K  K0  1  0.70134845  0.20134845  0.02872062  1
  K  K1  1  0.82737218  0.70134845  0.02872062  1
  K  K2  1  0.20134845  0.32737218  0.02872062  1
  K  K3  1  0.32737218  0.82737218  0.02872062  1
  K  K4  1  0.75360065  0.75360065  0.50720130  1
  K  K5  1  0.25360065  0.25360065  0.50720130  1
  N  N6  1  0.28561066  0.78561066  0.57122232  1
  N  N7  1  0.78561066  0.28561066  0.57122232  1
  O  O8  1  0.82538153  0.11286131  0.43824184  1
  O  O9  1  0.61286131  0.32538153  0.43824184  1
  O  O10  1  0.49982522  0.49982522  0.99965044  1
  O  O11  1  0.99982522  0.99982522  0.99965044  1
  O  O12  1  0.32538153  0.82538153  0.43824184  1
  O  O13  1  0.11286131  0.61286131  0.43824184  1
