# generated using pymatgen
data_CaH4SO6
_symmetry_space_group_name_H-M   'P 1'
_cell_length_a   8.13059161
_cell_length_b   8.13059161
_cell_length_c   5.65701098
_cell_angle_alpha   80.69011609
_cell_angle_beta   80.69011609
_cell_angle_gamma   134.57803724
_symmetry_Int_Tables_number   1
_chemical_formula_structural   CaH4SO6
_chemical_formula_sum   'Ca2 H8 S2 O12'
_cell_volume   241.86192723
_cell_formula_units_Z   2
loop_
 _symmetry_equiv_pos_site_id
 _symmetry_equiv_pos_as_xyz
  1  'x, y, z'
loop_
 _atom_site_type_symbol
 _atom_site_label
 _atom_site_symmetry_multiplicity
 _atom_site_fract_x
 _atom_site_fract_y
 _atom_site_fract_z
 _atom_site_occupancy
  Ca  Ca0  1  0.33204541  0.66795459  0.25000000  1
  Ca  Ca1  1  0.66795459  0.33204541  0.75000000  1
  H  H2  1  0.24987422  0.25564269  0.59233626  1
  H  H3  1  0.74435731  0.75012578  0.90766374  1
  H  H4  1  0.75012578  0.74435731  0.40766374  1
  H  H5  1  0.25564269  0.24987422  0.09233626  1
  H  H6  1  0.84509985  0.67044981  0.23973355  1
  H  H7  1  0.32955019  0.15490015  0.26026645  1
  H  H8  1  0.15490015  0.32955019  0.76026645  1
  H  H9  1  0.67044981  0.84509985  0.73973355  1
  S  S10  1  0.82759891  0.17240109  0.25000000  1
  S  S11  1  0.17240109  0.82759891  0.75000000  1
  O  O12  1  0.08464047  0.31768274  0.08301523  1
  O  O13  1  0.31174950  0.85583898  0.90833747  1
  O  O14  1  0.68825050  0.14416102  0.09166253  1
  O  O15  1  0.85583898  0.31174950  0.40833747  1
  O  O16  1  0.35197159  0.21873801  0.08207078  1
  O  O17  1  0.78126199  0.64802841  0.41792922  1
  O  O18  1  0.64802841  0.78126199  0.91792922  1
  O  O19  1  0.21873801  0.35197159  0.58207078  1
  O  O20  1  0.91535953  0.68231726  0.91698477  1
  O  O21  1  0.31768274  0.08464047  0.58301523  1
  O  O22  1  0.14416102  0.68825050  0.59166253  1
  O  O23  1  0.68231726  0.91535953  0.41698477  1
