# generated using pymatgen
data_CeNi
_symmetry_space_group_name_H-M   'P 1'
_cell_length_a   3.56971008
_cell_length_b   4.19071252
_cell_length_c   5.74011526
_cell_angle_alpha   90.00000000
_cell_angle_beta   108.11610746
_cell_angle_gamma   90.00000000
_symmetry_Int_Tables_number   1
_chemical_formula_structural   CeNi
_chemical_formula_sum   'Ce2 Ni2'
_cell_volume   81.61327623
_cell_formula_units_Z   2
loop_
 _symmetry_equiv_pos_site_id
 _symmetry_equiv_pos_as_xyz
  1  'x, y, z'
loop_
 _atom_site_type_symbol
 _atom_site_label
 _atom_site_symmetry_multiplicity
 _atom_site_fract_x
 _atom_site_fract_y
 _atom_site_fract_z
 _atom_site_occupancy
  Ce  Ce0  1  0.13647040  0.75000000  0.27294280  1
  Ce  Ce1  1  0.86362317  0.25000000  0.72724434  1
  Ni  Ni2  1  0.42254134  0.75000000  0.84508068  1
  Ni  Ni3  1  0.57736609  0.25000000  0.15473318  1
