# generated using pymatgen
data_KGaSb4
_symmetry_space_group_name_H-M   'P 1'
_cell_length_a   4.24279791
_cell_length_b   10.50251466
_cell_length_c   17.99405562
_cell_angle_alpha   90.00000000
_cell_angle_beta   90.00000000
_cell_angle_gamma   90.00000000
_symmetry_Int_Tables_number   1
_chemical_formula_structural   KGaSb4
_chemical_formula_sum   'K4 Ga4 Sb16'
_cell_volume   801.81596863
_cell_formula_units_Z   4
loop_
 _symmetry_equiv_pos_site_id
 _symmetry_equiv_pos_as_xyz
  1  'x, y, z'
loop_
 _atom_site_type_symbol
 _atom_site_label
 _atom_site_symmetry_multiplicity
 _atom_site_fract_x
 _atom_site_fract_y
 _atom_site_fract_z
 _atom_site_occupancy
  K  K0  1  0.75000000  0.17998784  0.43387319  1
  K  K1  1  0.25000000  0.82001216  0.56612681  1
  K  K2  1  0.75000000  0.67998784  0.06612681  1
  K  K3  1  0.25000000  0.32001216  0.93387319  1
  Ga  Ga4  1  0.75000000  0.31732191  0.63079466  1
  Ga  Ga5  1  0.25000000  0.68267809  0.36920534  1
  Ga  Ga6  1  0.75000000  0.81732191  0.86920534  1
  Ga  Ga7  1  0.25000000  0.18267809  0.13079466  1
  Sb  Sb8  1  0.75000000  0.82942682  0.39827218  1
  Sb  Sb9  1  0.25000000  0.17057318  0.60172782  1
  Sb  Sb10  1  0.75000000  0.32942682  0.10172782  1
  Sb  Sb11  1  0.25000000  0.67057318  0.89827218  1
  Sb  Sb12  1  0.75000000  0.38829866  0.77348979  1
  Sb  Sb13  1  0.25000000  0.61170134  0.22651021  1
  Sb  Sb14  1  0.75000000  0.88829866  0.72651021  1
  Sb  Sb15  1  0.25000000  0.11170134  0.27348979  1
  Sb  Sb16  1  0.75000000  0.53255470  0.55060328  1
  Sb  Sb17  1  0.25000000  0.46744530  0.44939672  1
  Sb  Sb18  1  0.75000000  0.03255470  0.94939672  1
  Sb  Sb19  1  0.25000000  0.96744530  0.05060328  1
  Sb  Sb20  1  0.75000000  0.93023263  0.25135977  1
  Sb  Sb21  1  0.25000000  0.06976737  0.74864023  1
  Sb  Sb22  1  0.75000000  0.43023263  0.24864023  1
  Sb  Sb23  1  0.25000000  0.56976737  0.75135977  1
