# generated using pymatgen
data_UF4
_symmetry_space_group_name_H-M   'P 1'
_cell_length_a   8.38220626
_cell_length_b   8.38220626
_cell_length_c   8.38894875
_cell_angle_alpha   63.02421788
_cell_angle_beta   63.02421788
_cell_angle_gamma   79.89948724
_symmetry_Int_Tables_number   1
_chemical_formula_structural   UF4
_chemical_formula_sum   'U6 F24'
_cell_volume   467.79417665
_cell_formula_units_Z   6
loop_
 _symmetry_equiv_pos_site_id
 _symmetry_equiv_pos_as_xyz
  1  'x, y, z'
loop_
 _atom_site_type_symbol
 _atom_site_label
 _atom_site_symmetry_multiplicity
 _atom_site_fract_x
 _atom_site_fract_y
 _atom_site_fract_z
 _atom_site_occupancy
  U  U0  1  0.22458384  0.36846670  0.32841253  1
  U  U1  1  0.63153330  0.77541616  0.17158747  1
  U  U2  1  0.77541616  0.63153330  0.67158747  1
  U  U3  1  0.36846670  0.22458384  0.82841253  1
  U  U4  1  0.21227283  0.78772717  0.75000000  1
  U  U5  1  0.78772717  0.21227283  0.25000000  1
  F  F6  1  0.72888627  0.02527684  0.15209293  1
  F  F7  1  0.97472316  0.27111373  0.34790707  1
  F  F8  1  0.27111373  0.97472316  0.84790707  1
  F  F9  1  0.02527684  0.72888627  0.65209293  1
  F  F10  1  0.50339621  0.25077323  0.29435527  1
  F  F11  1  0.74922677  0.49660379  0.20564473  1
  F  F12  1  0.50000000  0.00000000  0.00000000  1
  F  F13  1  -0.00000000  0.50000000  0.50000000  1
  F  F14  1  0.40126167  0.59873833  0.25000000  1
  F  F15  1  0.59873833  0.40126167  0.75000000  1
  F  F16  1  0.81043996  0.39978057  0.92514043  1
  F  F17  1  0.60021943  0.18956004  0.57485957  1
  F  F18  1  0.18956004  0.60021943  0.07485957  1
  F  F19  1  0.39978057  0.81043996  0.42514043  1
  F  F20  1  0.07029838  0.18010736  0.04407498  1
  F  F21  1  0.81989264  0.92970162  0.45592502  1
  F  F22  1  0.92970162  0.81989264  0.95592502  1
  F  F23  1  0.18010736  0.07029838  0.54407498  1
  F  F24  1  0.67527009  0.74085265  0.89421661  1
  F  F25  1  0.25914735  0.32472991  0.60578339  1
  F  F26  1  0.32472991  0.25914735  0.10578339  1
  F  F27  1  0.74085265  0.67527009  0.39421661  1
  F  F28  1  0.25077323  0.50339621  0.79435527  1
  F  F29  1  0.49660379  0.74922677  0.70564473  1
