# generated using pymatgen
data_YbInPd
_symmetry_space_group_name_H-M   'P 1'
_cell_length_a   3.72778570
_cell_length_b   7.63379665
_cell_length_c   7.63379665
_cell_angle_alpha   119.99999583
_cell_angle_beta   90.00000000
_cell_angle_gamma   90.00000000
_symmetry_Int_Tables_number   1
_chemical_formula_structural   YbInPd
_chemical_formula_sum   'Yb3 In3 Pd3'
_cell_volume   188.13203884
_cell_formula_units_Z   3
loop_
 _symmetry_equiv_pos_site_id
 _symmetry_equiv_pos_as_xyz
  1  'x, y, z'
loop_
 _atom_site_type_symbol
 _atom_site_label
 _atom_site_symmetry_multiplicity
 _atom_site_fract_x
 _atom_site_fract_y
 _atom_site_fract_z
 _atom_site_occupancy
  Yb  Yb0  1  0.50000000  0.40686735  1.00000000  1
  Yb  Yb1  1  0.50000000  1.00000000  0.40686735  1
  Yb  Yb2  1  0.50000000  0.59313265  0.59313265  1
  In  In3  1  0.00000000  0.73744572  0.00000000  1
  In  In4  1  0.00000000  0.00000000  0.73744572  1
  In  In5  1  0.00000000  0.26255428  0.26255428  1
  Pd  Pd6  1  0.50000000  0.00000000  0.00000000  1
  Pd  Pd7  1  0.00000000  0.66666700  0.33333300  1
  Pd  Pd8  1  0.00000000  0.33333300  0.66666700  1
