# generated using pymatgen
data_CuSeO3
_symmetry_space_group_name_H-M   'P 1'
_cell_length_a   5.94944534
_cell_length_b   6.99177858
_cell_length_c   12.25358662
_cell_angle_alpha   90.00000000
_cell_angle_beta   90.00000000
_cell_angle_gamma   90.00000000
_symmetry_Int_Tables_number   1
_chemical_formula_structural   CuSeO3
_chemical_formula_sum   'Cu8 Se8 O24'
_cell_volume   509.71494838
_cell_formula_units_Z   8
loop_
 _symmetry_equiv_pos_site_id
 _symmetry_equiv_pos_as_xyz
  1  'x, y, z'
loop_
 _atom_site_type_symbol
 _atom_site_label
 _atom_site_symmetry_multiplicity
 _atom_site_fract_x
 _atom_site_fract_y
 _atom_site_fract_z
 _atom_site_occupancy
  Cu  Cu0  1  0.84938254  0.42361450  0.59180262  1
  Cu  Cu1  1  0.34938254  0.57638550  0.90819738  1
  Cu  Cu2  1  0.65061746  0.92361450  0.40819738  1
  Cu  Cu3  1  0.15061746  0.07638550  0.09180262  1
  Cu  Cu4  1  0.15061746  0.57638550  0.40819738  1
  Cu  Cu5  1  0.65061746  0.42361450  0.09180262  1
  Cu  Cu6  1  0.34938254  0.07638550  0.59180262  1
  Cu  Cu7  1  0.84938254  0.92361450  0.90819738  1
  Se  Se8  1  0.89145871  0.94668239  0.64639431  1
  Se  Se9  1  0.39145871  0.05331761  0.85360569  1
  Se  Se10  1  0.60854129  0.44668239  0.35360569  1
  Se  Se11  1  0.10854129  0.55331761  0.14639431  1
  Se  Se12  1  0.10854129  0.05331761  0.35360569  1
  Se  Se13  1  0.60854129  0.94668239  0.14639431  1
  Se  Se14  1  0.39145871  0.55331761  0.64639431  1
  Se  Se15  1  0.89145871  0.44668239  0.85360569  1
  O  O16  1  0.02706301  0.64519010  0.90836148  1
  O  O17  1  0.52706301  0.35480990  0.59163852  1
  O  O18  1  0.47293699  0.14519010  0.09163852  1
  O  O19  1  0.97293699  0.85480990  0.40836148  1
  O  O20  1  0.97293699  0.35480990  0.09163852  1
  O  O21  1  0.47293699  0.64519010  0.40836148  1
  O  O22  1  0.52706301  0.85480990  0.90836148  1
  O  O23  1  0.02706301  0.14519010  0.59163852  1
  O  O24  1  0.64483540  0.45337354  0.93005460  1
  O  O25  1  0.14483540  0.54662646  0.56994540  1
  O  O26  1  0.85516460  0.95337354  0.06994540  1
  O  O27  1  0.35516460  0.04662646  0.43005460  1
  O  O28  1  0.35516460  0.54662646  0.06994540  1
  O  O29  1  0.85516460  0.45337354  0.43005460  1
  O  O30  1  0.14483540  0.04662646  0.93005460  1
  O  O31  1  0.64483540  0.95337354  0.56994540  1
  O  O32  1  0.79587132  0.04122267  0.76531182  1
  O  O33  1  0.29587132  0.95877733  0.73468818  1
  O  O34  1  0.70412868  0.54122267  0.23468818  1
  O  O35  1  0.20412868  0.45877733  0.26531182  1
  O  O36  1  0.20412868  0.95877733  0.23468818  1
  O  O37  1  0.70412868  0.04122267  0.26531182  1
  O  O38  1  0.29587132  0.45877733  0.76531182  1
  O  O39  1  0.79587132  0.54122267  0.73468818  1
