# generated using pymatgen
data_KP(HO2)2
_symmetry_space_group_name_H-M   'P 1'
_cell_length_a   7.06972350
_cell_length_b   7.30485522
_cell_length_c   7.39095313
_cell_angle_alpha   88.08334574
_cell_angle_beta   86.92569951
_cell_angle_gamma   87.80171077
_symmetry_Int_Tables_number   1
_chemical_formula_structural   KP(HO2)2
_chemical_formula_sum   'K4 P4 H8 O16'
_cell_volume   380.67495208
_cell_formula_units_Z   4
loop_
 _symmetry_equiv_pos_site_id
 _symmetry_equiv_pos_as_xyz
  1  'x, y, z'
loop_
 _atom_site_type_symbol
 _atom_site_label
 _atom_site_symmetry_multiplicity
 _atom_site_fract_x
 _atom_site_fract_y
 _atom_site_fract_z
 _atom_site_occupancy
  K  K0  1  0.06986353  0.82041600  0.69410672  1
  K  K1  1  0.93013647  0.17958400  0.30589328  1
  K  K2  1  0.63980838  0.24839571  0.79558247  1
  K  K3  1  0.36019162  0.75160429  0.20441753  1
  P  P4  1  0.57266284  0.75238756  0.69921404  1
  P  P5  1  0.42733716  0.24761244  0.30078596  1
  P  P6  1  0.11356627  0.27524676  0.79224750  1
  P  P7  1  0.88643373  0.72475324  0.20775250  1
  H  H8  1  0.27431997  0.12730506  0.00529586  1
  H  H9  1  0.34851739  0.56304134  0.79733038  1
  H  H10  1  0.72239432  0.58241881  0.48470938  1
  H  H11  1  0.27760568  0.41758119  0.51529062  1
  H  H12  1  0.65148261  0.43695866  0.20266962  1
  H  H13  1  0.50000000  0.00000000  0.50000000  1
  H  H14  1  0.72568003  0.87269494  0.99470414  1
  H  H15  1  -0.00000000  0.50000000  -0.00000000  1
  O  O16  1  0.01189693  0.65480374  0.04553127  1
  O  O17  1  0.98810307  0.34519626  0.95446873  1
  O  O18  1  0.30837208  0.11972898  0.20650610  1
  O  O19  1  0.99587378  0.80990137  0.34767836  1
  O  O20  1  0.00412622  0.19009863  0.65232164  1
  O  O21  1  0.74653189  0.87941098  0.12898682  1
  O  O22  1  0.25346811  0.12058902  0.87101318  1
  O  O23  1  0.69162792  0.88027102  0.79349390  1
  O  O24  1  0.42924749  0.66575483  0.84342876  1
  O  O25  1  0.76395745  0.56835823  0.28823609  1
  O  O26  1  0.23604255  0.43164177  0.71176391  1
  O  O27  1  0.69163470  0.58475129  0.62295233  1
  O  O28  1  0.57075251  0.33424517  0.15657124  1
  O  O29  1  0.53593042  0.15490960  0.45473567  1
  O  O30  1  0.46406958  0.84509040  0.54526433  1
  O  O31  1  0.30836530  0.41524871  0.37704767  1
