# generated using pymatgen
data_BiSe
_symmetry_space_group_name_H-M   'P 1'
_cell_length_a   4.22755345
_cell_length_b   4.22755244
_cell_length_c   24.14733097
_cell_angle_alpha   90.00000000
_cell_angle_beta   90.00000000
_cell_angle_gamma   119.99999191
_symmetry_Int_Tables_number   1
_chemical_formula_structural   BiSe
_chemical_formula_sum   'Bi6 Se6'
_cell_volume   373.74716939
_cell_formula_units_Z   6
loop_
 _symmetry_equiv_pos_site_id
 _symmetry_equiv_pos_as_xyz
  1  'x, y, z'
loop_
 _atom_site_type_symbol
 _atom_site_label
 _atom_site_symmetry_multiplicity
 _atom_site_fract_x
 _atom_site_fract_y
 _atom_site_fract_z
 _atom_site_occupancy
  Bi  Bi0  1  0.66666700  0.33333300  0.46358940  1
  Bi  Bi1  1  0.33333300  0.66666700  0.53641060  1
  Bi  Bi2  1  0.66666700  0.33333300  0.71494167  1
  Bi  Bi3  1  0.33333300  0.66666700  0.28505833  1
  Bi  Bi4  1  0.00000000  0.00000000  0.87241365  1
  Bi  Bi5  1  -0.00000000  -0.00000000  0.12758635  1
  Se  Se6  1  -0.00000000  -0.00000000  0.65121354  1
  Se  Se7  1  0.00000000  0.00000000  0.34878646  1
  Se  Se8  1  0.66666700  0.33333300  0.20733152  1
  Se  Se9  1  0.33333300  0.66666700  0.79266848  1
  Se  Se10  1  0.66666700  0.33333300  0.93465673  1
  Se  Se11  1  0.33333300  0.66666700  0.06534327  1
