# generated using pymatgen
data_B(HO)3
_symmetry_space_group_name_H-M   'P 1'
_cell_length_a   6.22547028
_cell_length_b   6.89885472
_cell_length_c   6.92950707
_cell_angle_alpha   59.98587283
_cell_angle_beta   76.12880360
_cell_angle_gamma   78.83635011
_symmetry_Int_Tables_number   1
_chemical_formula_structural   B(HO)3
_chemical_formula_sum   'B4 H12 O12'
_cell_volume   249.22501777
_cell_formula_units_Z   4
loop_
 _symmetry_equiv_pos_site_id
 _symmetry_equiv_pos_as_xyz
  1  'x, y, z'
loop_
 _atom_site_type_symbol
 _atom_site_label
 _atom_site_symmetry_multiplicity
 _atom_site_fract_x
 _atom_site_fract_y
 _atom_site_fract_z
 _atom_site_occupancy
  B  B0  1  0.76068653  0.55122048  0.75767064  1
  B  B1  1  0.23931347  0.44877952  0.24232936  1
  B  B2  1  0.26058180  0.77765824  0.57372734  1
  B  B3  1  0.73941820  0.22234176  0.42627266  1
  H  H4  1  0.75872706  0.24336556  0.02417077  1
  H  H5  1  0.25844473  0.04469089  0.61592165  1
  H  H6  1  0.74155527  0.95530911  0.38407835  1
  H  H7  1  0.24858188  0.46981872  0.84300664  1
  H  H8  1  0.24127294  0.75663444  0.97582923  1
  H  H9  1  0.75592477  0.59493276  0.44938156  1
  H  H10  1  0.24407523  0.40506724  0.55061844  1
  H  H11  1  0.74222845  0.82063297  0.80132440  1
  H  H12  1  0.25777155  0.17936703  0.19867560  1
  H  H13  1  0.75017213  0.17951733  0.73219385  1
  H  H14  1  0.24982787  0.82048267  0.26780615  1
  H  H15  1  0.75141812  0.53018128  0.15699336  1
  O  O16  1  0.76980895  0.32214557  0.85711315  1
  O  O17  1  0.75698577  0.67951663  0.53048993  1
  O  O18  1  0.24301423  0.32048337  0.46951007  1
  O  O19  1  0.75216000  0.65374889  0.88537047  1
  O  O20  1  0.24784000  0.34625111  0.11462953  1
  O  O21  1  0.73730019  0.09556656  0.65406064  1
  O  O22  1  0.26269981  0.90443344  0.34593936  1
  O  O23  1  0.74812053  0.45048635  0.32325204  1
  O  O24  1  0.25187947  0.54951365  0.67674796  1
  O  O25  1  0.73575644  0.12181209  0.29989089  1
  O  O26  1  0.26424356  0.87818791  0.70010911  1
  O  O27  1  0.23019105  0.67785443  0.14288685  1
