# generated using pymatgen
data_ErZn5
_symmetry_space_group_name_H-M   'P 1'
_cell_length_a   8.74666085
_cell_length_b   8.74666202
_cell_length_c   8.90737885
_cell_angle_alpha   90.00000000
_cell_angle_beta   90.00000000
_cell_angle_gamma   119.99999941
_symmetry_Int_Tables_number   1
_chemical_formula_structural   ErZn5
_chemical_formula_sum   'Er6 Zn30'
_cell_volume   590.15377671
_cell_formula_units_Z   6
loop_
 _symmetry_equiv_pos_site_id
 _symmetry_equiv_pos_as_xyz
  1  'x, y, z'
loop_
 _atom_site_type_symbol
 _atom_site_label
 _atom_site_symmetry_multiplicity
 _atom_site_fract_x
 _atom_site_fract_y
 _atom_site_fract_z
 _atom_site_occupancy
  Er  Er0  1  0.18903080  0.37806060  0.25000000  1
  Er  Er1  1  0.81096920  0.18903080  0.75000000  1
  Er  Er2  1  0.37806060  0.18903080  0.75000000  1
  Er  Er3  1  0.62193940  0.81096920  0.25000000  1
  Er  Er4  1  0.18903080  0.81096920  0.25000000  1
  Er  Er5  1  0.81096920  0.62193940  0.75000000  1
  Zn  Zn6  1  -0.00000000  -0.00000000  -0.00000000  1
  Zn  Zn7  1  -0.00000000  -0.00000000  0.50000000  1
  Zn  Zn8  1  0.33333300  0.66666700  0.01632282  1
  Zn  Zn9  1  0.66666700  0.33333300  0.51632282  1
  Zn  Zn10  1  0.66666700  0.33333300  0.98367718  1
  Zn  Zn11  1  0.33333300  0.66666700  0.48367718  1
  Zn  Zn12  1  0.50000000  -0.00000000  -0.00000000  1
  Zn  Zn13  1  0.50000000  0.50000000  0.50000000  1
  Zn  Zn14  1  -0.00000000  0.50000000  0.50000000  1
  Zn  Zn15  1  -0.00000000  0.50000000  -0.00000000  1
  Zn  Zn16  1  0.50000000  0.50000000  -0.00000000  1
  Zn  Zn17  1  0.50000000  -0.00000000  0.50000000  1
  Zn  Zn18  1  0.56800785  0.13601370  0.25000000  1
  Zn  Zn19  1  0.43199215  0.56800785  0.75000000  1
  Zn  Zn20  1  0.13601370  0.56800785  0.75000000  1
  Zn  Zn21  1  0.86398630  0.43199215  0.25000000  1
  Zn  Zn22  1  0.56800785  0.43199215  0.25000000  1
  Zn  Zn23  1  0.43199215  0.86398630  0.75000000  1
  Zn  Zn24  1  0.83887869  0.67775737  0.09250340  1
  Zn  Zn25  1  0.16112131  0.83887869  0.59250340  1
  Zn  Zn26  1  0.67775737  0.83887869  0.59250340  1
  Zn  Zn27  1  0.32224263  0.16112131  0.09250340  1
  Zn  Zn28  1  0.83887869  0.16112131  0.09250340  1
  Zn  Zn29  1  0.16112131  0.32224263  0.90749660  1
  Zn  Zn30  1  0.16112131  0.83887869  0.90749660  1
  Zn  Zn31  1  0.16112131  0.32224263  0.59250340  1
  Zn  Zn32  1  0.67775737  0.83887869  0.90749660  1
  Zn  Zn33  1  0.32224263  0.16112131  0.40749660  1
  Zn  Zn34  1  0.83887869  0.67775737  0.40749660  1
  Zn  Zn35  1  0.83887869  0.16112131  0.40749660  1
