# generated using pymatgen
data_Na3ErCl6
_symmetry_space_group_name_H-M   'P 1'
_cell_length_a   6.78428306
_cell_length_b   7.21939296
_cell_length_c   10.06143346
_cell_angle_alpha   90.00000000
_cell_angle_beta   90.83481319
_cell_angle_gamma   90.00000000
_symmetry_Int_Tables_number   1
_chemical_formula_structural   Na3ErCl6
_chemical_formula_sum   'Na6 Er2 Cl12'
_cell_volume   492.74065946
_cell_formula_units_Z   2
loop_
 _symmetry_equiv_pos_site_id
 _symmetry_equiv_pos_as_xyz
  1  'x, y, z'
loop_
 _atom_site_type_symbol
 _atom_site_label
 _atom_site_symmetry_multiplicity
 _atom_site_fract_x
 _atom_site_fract_y
 _atom_site_fract_z
 _atom_site_occupancy
  Na  Na0  1  0.00000000  0.00000000  0.50000000  1
  Na  Na1  1  0.50000000  0.50000000  -0.00000000  1
  Na  Na2  1  0.52573797  0.92240596  0.24186633  1
  Na  Na3  1  0.97426203  0.42240596  0.25813367  1
  Na  Na4  1  0.47426203  0.07759404  0.75813367  1
  Na  Na5  1  0.02573797  0.57759404  0.74186633  1
  Er  Er6  1  0.00000000  0.00000000  -0.00000000  1
  Er  Er7  1  0.50000000  0.50000000  0.50000000  1
  Cl  Cl8  1  0.13935385  0.06400362  0.23993317  1
  Cl  Cl9  1  0.36064615  0.56400362  0.26006683  1
  Cl  Cl10  1  0.86064615  0.93599638  0.76006683  1
  Cl  Cl11  1  0.63935385  0.43599638  0.73993317  1
  Cl  Cl12  1  0.68496925  0.17920467  0.06490417  1
  Cl  Cl13  1  0.81503075  0.67920467  0.43509583  1
  Cl  Cl14  1  0.31503075  0.82079533  0.93509583  1
  Cl  Cl15  1  0.18496925  0.32079533  0.56490417  1
  Cl  Cl16  1  0.16837655  0.30522916  0.92189238  1
  Cl  Cl17  1  0.33162345  0.80522916  0.57810762  1
  Cl  Cl18  1  0.83162345  0.69477084  0.07810762  1
  Cl  Cl19  1  0.66837655  0.19477084  0.42189238  1
