# generated using pymatgen
data_LaIn2Ir
_symmetry_space_group_name_H-M   'P 1'
_cell_length_a   5.59197466
_cell_length_b   5.59197466
_cell_length_c   8.19349719
_cell_angle_alpha   90.00000000
_cell_angle_beta   90.00000000
_cell_angle_gamma   133.06294350
_symmetry_Int_Tables_number   1
_chemical_formula_structural   LaIn2Ir
_chemical_formula_sum   'La2 In4 Ir2'
_cell_volume   187.18962157
_cell_formula_units_Z   2
loop_
 _symmetry_equiv_pos_site_id
 _symmetry_equiv_pos_as_xyz
  1  'x, y, z'
loop_
 _atom_site_type_symbol
 _atom_site_label
 _atom_site_symmetry_multiplicity
 _atom_site_fract_x
 _atom_site_fract_y
 _atom_site_fract_z
 _atom_site_occupancy
  La  La0  1  0.93559988  0.06440012  0.75000000  1
  La  La1  1  0.06440012  0.93559988  0.25000000  1
  In  In2  1  0.64954374  0.35045626  0.55114837  1
  In  In3  1  0.35045626  0.64954374  0.44885163  1
  In  In4  1  0.64954374  0.35045626  0.94885163  1
  In  In5  1  0.35045626  0.64954374  0.05114837  1
  Ir  Ir6  1  0.78569355  0.21430645  0.25000000  1
  Ir  Ir7  1  0.21430645  0.78569355  0.75000000  1
