# generated using pymatgen
data_SOF2
_symmetry_space_group_name_H-M   'P 1'
_cell_length_a   6.84173386
_cell_length_b   5.18702820
_cell_length_c   14.16571995
_cell_angle_alpha   82.34405358
_cell_angle_beta   90.00000000
_cell_angle_gamma   90.00000000
_symmetry_Int_Tables_number   1
_chemical_formula_structural   SOF2
_chemical_formula_sum   'S8 O8 F16'
_cell_volume   498.23558889
_cell_formula_units_Z   8
loop_
 _symmetry_equiv_pos_site_id
 _symmetry_equiv_pos_as_xyz
  1  'x, y, z'
loop_
 _atom_site_type_symbol
 _atom_site_label
 _atom_site_symmetry_multiplicity
 _atom_site_fract_x
 _atom_site_fract_y
 _atom_site_fract_z
 _atom_site_occupancy
  S  S0  1  0.77215806  0.53565089  0.64974786  1
  S  S1  1  0.27215806  0.46434911  0.85025214  1
  S  S2  1  0.22784194  0.46434911  0.35025214  1
  S  S3  1  0.72784194  0.53565089  0.14974786  1
  S  S4  1  0.83779293  0.95346879  0.86292762  1
  S  S5  1  0.33779293  0.04653121  0.63707238  1
  S  S6  1  0.16220707  0.04653121  0.13707238  1
  S  S7  1  0.66220707  0.95346879  0.36292762  1
  O  O8  1  0.03449386  0.97167737  0.82986246  1
  O  O9  1  0.80070461  0.49400830  0.75024073  1
  O  O10  1  0.30070461  0.50599170  0.74975927  1
  O  O11  1  0.19929539  0.50599170  0.24975927  1
  O  O12  1  0.69929539  0.49400830  0.25024073  1
  O  O13  1  0.53449386  0.02832263  0.67013754  1
  O  O14  1  0.96550614  0.02832263  0.17013754  1
  O  O15  1  0.46550614  0.97167737  0.32986246  1
  F  F16  1  0.58914173  0.77619132  0.11182963  1
  F  F17  1  0.08914173  0.22380868  0.38817037  1
  F  F18  1  0.41085827  0.22380868  0.88817037  1
  F  F19  1  0.91241005  0.33063889  0.60800899  1
  F  F20  1  0.91085827  0.77619132  0.61182963  1
  F  F21  1  0.58758995  0.33063889  0.10800899  1
  F  F22  1  0.08758995  0.66936111  0.39199101  1
  F  F23  1  0.41241005  0.66936111  0.89199101  1
  F  F24  1  0.67416661  0.13917311  0.44447162  1
  F  F25  1  0.17416661  0.86082689  0.05552838  1
  F  F26  1  0.32583339  0.86082689  0.55552838  1
  F  F27  1  0.82583339  0.13917311  0.94447162  1
  F  F28  1  0.66848385  0.69438471  0.43908077  1
  F  F29  1  0.16848385  0.30561529  0.06091923  1
  F  F30  1  0.33151615  0.30561529  0.56091923  1
  F  F31  1  0.83151615  0.69438471  0.93908077  1
