# generated using pymatgen
data_NdInPd
_symmetry_space_group_name_H-M   'P 1'
_cell_length_a   7.81111430
_cell_length_b   7.81111430
_cell_length_c   3.95318481
_cell_angle_alpha   90.00000000
_cell_angle_beta   90.00000000
_cell_angle_gamma   119.99999445
_symmetry_Int_Tables_number   1
_chemical_formula_structural   NdInPd
_chemical_formula_sum   'Nd3 In3 Pd3'
_cell_volume   208.88331933
_cell_formula_units_Z   3
loop_
 _symmetry_equiv_pos_site_id
 _symmetry_equiv_pos_as_xyz
  1  'x, y, z'
loop_
 _atom_site_type_symbol
 _atom_site_label
 _atom_site_symmetry_multiplicity
 _atom_site_fract_x
 _atom_site_fract_y
 _atom_site_fract_z
 _atom_site_occupancy
  Nd  Nd0  1  -0.00000000  0.58822945  0.00000000  1
  Nd  Nd1  1  0.41177055  0.41177055  -0.00000000  1
  Nd  Nd2  1  0.58822945  -0.00000000  0.00000000  1
  In  In3  1  0.74654736  0.74654736  0.50000000  1
  In  In4  1  0.00000000  0.25345264  0.50000000  1
  In  In5  1  0.25345264  0.00000000  0.50000000  1
  Pd  Pd6  1  0.33333300  0.66666700  0.50000000  1
  Pd  Pd7  1  0.00000000  0.00000000  0.00000000  1
  Pd  Pd8  1  0.66666700  0.33333300  0.50000000  1
