# generated using pymatgen
data_K2CaH2S2O9
_symmetry_space_group_name_H-M   'P 1'
_cell_length_a   7.09426912
_cell_length_b   6.21955592
_cell_length_c   9.71233629
_cell_angle_alpha   76.18599084
_cell_angle_beta   90.00000000
_cell_angle_gamma   90.00000000
_symmetry_Int_Tables_number   1
_chemical_formula_structural   K2CaH2S2O9
_chemical_formula_sum   'K4 Ca2 H4 S4 O18'
_cell_volume   416.14428624
_cell_formula_units_Z   2
loop_
 _symmetry_equiv_pos_site_id
 _symmetry_equiv_pos_as_xyz
  1  'x, y, z'
loop_
 _atom_site_type_symbol
 _atom_site_label
 _atom_site_symmetry_multiplicity
 _atom_site_fract_x
 _atom_site_fract_y
 _atom_site_fract_z
 _atom_site_occupancy
  K  K0  1  0.50790726  0.80443423  0.33582967  1
  K  K1  1  0.00790726  0.19556577  0.66417033  1
  K  K2  1  0.49209274  0.19556577  0.66417033  1
  K  K3  1  0.99209274  0.80443423  0.33582967  1
  Ca  Ca4  1  0.75000000  0.66568897  0.96840356  1
  Ca  Ca5  1  0.25000000  0.33431103  0.03159644  1
  H  H6  1  0.13838468  0.59720933  0.75053803  1
  H  H7  1  0.63838468  0.40279067  0.24946197  1
  H  H8  1  0.86161532  0.40279067  0.24946197  1
  H  H9  1  0.36161532  0.59720933  0.75053803  1
  S  S10  1  0.75000000  0.73241387  0.63739926  1
  S  S11  1  0.25000000  0.26758613  0.36260074  1
  S  S12  1  0.75000000  0.15973528  0.98872799  1
  S  S13  1  0.25000000  0.84026472  0.01127201  1
  O  O14  1  0.75000000  0.49739011  0.22402439  1
  O  O15  1  0.25000000  0.50260989  0.77597561  1
  O  O16  1  0.41687519  0.69507115  0.01980356  1
  O  O17  1  0.91687519  0.30492885  0.98019644  1
  O  O18  1  0.58312481  0.30492885  0.98019644  1
  O  O19  1  0.08312481  0.69507115  0.01980356  1
  O  O20  1  0.25000000  0.01826736  0.88164476  1
  O  O21  1  0.75000000  0.98173264  0.11835524  1
  O  O22  1  0.25000000  0.05320225  0.46823754  1
  O  O23  1  0.75000000  0.94679775  0.53176246  1
  O  O24  1  0.25000000  0.44989620  0.43582709  1
  O  O25  1  0.75000000  0.55010380  0.56417291  1
  O  O26  1  0.08253547  0.28222994  0.26906396  1
  O  O27  1  0.58253547  0.71777006  0.73093604  1
  O  O28  1  0.91746453  0.71777006  0.73093604  1
  O  O29  1  0.41746453  0.28222994  0.26906396  1
  O  O30  1  0.25000000  0.94360958  0.13355131  1
  O  O31  1  0.75000000  0.05639042  0.86644869  1
