# generated using pymatgen
data_Eu(SiPd)2
_symmetry_space_group_name_H-M   'P 1'
_cell_length_a   4.23677246
_cell_length_b   4.23677265
_cell_length_c   5.80856826
_cell_angle_alpha   111.38914154
_cell_angle_beta   111.38914302
_cell_angle_gamma   90.00000495
_symmetry_Int_Tables_number   1
_chemical_formula_structural   Eu(SiPd)2
_chemical_formula_sum   'Eu1 Si2 Pd2'
_cell_volume   89.32718961
_cell_formula_units_Z   1
loop_
 _symmetry_equiv_pos_site_id
 _symmetry_equiv_pos_as_xyz
  1  'x, y, z'
loop_
 _atom_site_type_symbol
 _atom_site_label
 _atom_site_symmetry_multiplicity
 _atom_site_fract_x
 _atom_site_fract_y
 _atom_site_fract_z
 _atom_site_occupancy
  Eu  Eu0  1  -0.00000000  0.00000000  -0.00000000  1
  Si  Si1  1  0.62154766  0.62154766  0.24309433  1
  Si  Si2  1  0.37845234  0.37845234  0.75690567  1
  Pd  Pd3  1  0.75000000  0.25000000  0.50000000  1
  Pd  Pd4  1  0.25000000  0.75000000  0.50000000  1
