# generated using pymatgen
data_Hg5(BrO2)2
_symmetry_space_group_name_H-M   'P 1'
_cell_length_a   8.97661132
_cell_length_b   8.97642943
_cell_length_c   8.97636086
_cell_angle_alpha   139.19842350
_cell_angle_beta   98.04427566
_cell_angle_gamma   95.91632293
_symmetry_Int_Tables_number   1
_chemical_formula_structural   Hg5(BrO2)2
_chemical_formula_sum   'Hg10 Br4 O8'
_cell_volume   442.89177234
_cell_formula_units_Z   2
loop_
 _symmetry_equiv_pos_site_id
 _symmetry_equiv_pos_as_xyz
  1  'x, y, z'
loop_
 _atom_site_type_symbol
 _atom_site_label
 _atom_site_symmetry_multiplicity
 _atom_site_fract_x
 _atom_site_fract_y
 _atom_site_fract_z
 _atom_site_occupancy
  Hg  Hg0  1  0.14192841  0.35513295  0.21319643  1
  Hg  Hg1  1  0.35806794  0.07126885  0.71320989  1
  Hg  Hg2  1  0.85806941  0.64487084  0.78681110  1
  Hg  Hg3  1  0.64192623  0.92873325  0.28679583  1
  Hg  Hg4  1  0.58907867  0.33909661  0.25002226  1
  Hg  Hg5  1  0.91091574  0.66094248  0.25001582  1
  Hg  Hg6  1  0.41092102  0.66092661  0.75000186  1
  Hg  Hg7  1  0.08908187  0.33904535  0.74997327  1
  Hg  Hg8  1  0.24999247  0.00000854  0.25000663  1
  Hg  Hg9  1  0.74999838  -0.00000701  0.74999504  1
  Br  Br10  1  0.89243055  0.16396960  0.27151589  1
  Br  Br11  1  0.60760381  0.37913693  0.77160323  1
  Br  Br12  1  0.10760162  0.83602604  0.72849150  1
  Br  Br13  1  0.39242189  0.62085230  0.22836617  1
  O  O14  1  0.67696850  0.65494732  0.62198211  1
  O  O15  1  0.82302504  0.94501463  0.47798162  1
  O  O16  1  0.53295099  0.05493996  0.87795551  1
  O  O17  1  0.96704256  0.34500171  0.02199341  1
  O  O18  1  0.03294800  0.65501680  0.97802643  1
  O  O19  1  0.46704065  0.94504177  0.12202242  1
  O  O20  1  0.32302155  0.34503199  0.37799797  1
  O  O21  1  0.17696471  0.05500248  0.52203560  1
