# generated using pymatgen
data_KPH3O4F
_symmetry_space_group_name_H-M   'P 1'
_cell_length_a   6.37680425
_cell_length_b   7.49830130
_cell_length_c   9.37190606
_cell_angle_alpha   90.00000000
_cell_angle_beta   101.21069077
_cell_angle_gamma   90.00000000
_symmetry_Int_Tables_number   1
_chemical_formula_structural   KPH3O4F
_chemical_formula_sum   'K4 P4 H12 O16 F4'
_cell_volume   439.56894255
_cell_formula_units_Z   4
loop_
 _symmetry_equiv_pos_site_id
 _symmetry_equiv_pos_as_xyz
  1  'x, y, z'
loop_
 _atom_site_type_symbol
 _atom_site_label
 _atom_site_symmetry_multiplicity
 _atom_site_fract_x
 _atom_site_fract_y
 _atom_site_fract_z
 _atom_site_occupancy
  K  K0  1  0.84565682  0.27502939  0.95332573  1
  K  K1  1  0.15434318  0.77502939  0.54667427  1
  K  K2  1  0.15434318  0.72497061  0.04667427  1
  K  K3  1  0.84565682  0.22497061  0.45332573  1
  P  P4  1  0.61678214  0.79437606  0.83066273  1
  P  P5  1  0.38321786  0.29437606  0.66933727  1
  P  P6  1  0.38321786  0.20562394  0.16933727  1
  P  P7  1  0.61678214  0.70562394  0.33066273  1
  H  H8  1  0.89903923  0.97948084  0.76604335  1
  H  H9  1  0.10096077  0.47948084  0.73395665  1
  H  H10  1  0.10096077  0.02051916  0.23395665  1
  H  H11  1  0.89903923  0.52051916  0.26604335  1
  H  H12  1  0.39512441  0.01784066  0.83871844  1
  H  H13  1  0.60487559  0.51784066  0.66128156  1
  H  H14  1  0.60487559  0.98215934  0.16128156  1
  H  H15  1  0.39512441  0.48215934  0.33871844  1
  H  H16  1  0.37085689  0.17282293  0.46082500  1
  H  H17  1  0.62914311  0.67282293  0.03917500  1
  H  H18  1  0.62914311  0.82717707  0.53917500  1
  H  H19  1  0.37085689  0.32717707  0.96082500  1
  O  O20  1  0.64090069  0.63226538  0.93832000  1
  O  O21  1  0.40126561  0.61705417  0.35014561  1
  O  O22  1  0.59873439  0.38294583  0.64985439  1
  O  O23  1  0.40126561  0.88294583  0.85014561  1
  O  O24  1  0.59437867  0.78007421  0.17864940  1
  O  O25  1  0.40562133  0.28007421  0.32135060  1
  O  O26  1  0.40562133  0.21992579  0.82135060  1
  O  O27  1  0.59437867  0.71992579  0.67864940  1
  O  O28  1  0.80057364  0.57681655  0.37243812  1
  O  O29  1  0.19942636  0.07681655  0.12756188  1
  O  O30  1  0.19942636  0.42318345  0.62756188  1
  O  O31  1  0.80057364  0.92318345  0.87243812  1
  O  O32  1  0.35909931  0.36773462  0.06168000  1
  O  O33  1  0.64090069  0.86773462  0.43832000  1
  O  O34  1  0.59873439  0.11705417  0.14985439  1
  O  O35  1  0.35909931  0.13226538  0.56168000  1
  F  F36  1  0.97162382  0.02996517  0.68579766  1
  F  F37  1  0.02837618  0.52996517  0.81420234  1
  F  F38  1  0.02837618  0.97003483  0.31420234  1
  F  F39  1  0.97162382  0.47003483  0.18579766  1
