# generated using pymatgen
data_CsVCl3
_symmetry_space_group_name_H-M   'P 1'
_cell_length_a   7.23788792
_cell_length_b   7.23789468
_cell_length_c   6.19426413
_cell_angle_alpha   90.00000000
_cell_angle_beta   90.00000000
_cell_angle_gamma   120.00002553
_symmetry_Int_Tables_number   1
_chemical_formula_structural   CsVCl3
_chemical_formula_sum   'Cs2 V2 Cl6'
_cell_volume   281.02460960
_cell_formula_units_Z   2
loop_
 _symmetry_equiv_pos_site_id
 _symmetry_equiv_pos_as_xyz
  1  'x, y, z'
loop_
 _atom_site_type_symbol
 _atom_site_label
 _atom_site_symmetry_multiplicity
 _atom_site_fract_x
 _atom_site_fract_y
 _atom_site_fract_z
 _atom_site_occupancy
  Cs  Cs0  1  0.66666700  0.33333300  0.25000000  1
  Cs  Cs1  1  0.33333300  0.66666700  0.75000000  1
  V  V2  1  0.00000000  0.00000000  0.50000000  1
  V  V3  1  0.00000000  0.00000000  0.00000000  1
  Cl  Cl4  1  0.84360225  0.68720450  0.75000000  1
  Cl  Cl5  1  0.15639775  0.84360325  0.25000000  1
  Cl  Cl6  1  0.68720550  0.84360325  0.25000000  1
  Cl  Cl7  1  0.31279450  0.15639675  0.75000000  1
  Cl  Cl8  1  0.15639775  0.31279550  0.25000000  1
  Cl  Cl9  1  0.84360225  0.15639675  0.75000000  1
