# generated using pymatgen
data_KAlSb4
_symmetry_space_group_name_H-M   'P 1'
_cell_length_a   4.25423892
_cell_length_b   10.52859814
_cell_length_c   18.11658016
_cell_angle_alpha   90.00000000
_cell_angle_beta   90.00000000
_cell_angle_gamma   90.00000000
_symmetry_Int_Tables_number   1
_chemical_formula_structural   KAlSb4
_chemical_formula_sum   'K4 Al4 Sb16'
_cell_volume   811.46285764
_cell_formula_units_Z   4
loop_
 _symmetry_equiv_pos_site_id
 _symmetry_equiv_pos_as_xyz
  1  'x, y, z'
loop_
 _atom_site_type_symbol
 _atom_site_label
 _atom_site_symmetry_multiplicity
 _atom_site_fract_x
 _atom_site_fract_y
 _atom_site_fract_z
 _atom_site_occupancy
  K  K0  1  0.25000000  0.32297566  0.93361653  1
  K  K1  1  0.75000000  0.67702434  0.06638347  1
  K  K2  1  0.25000000  0.82297566  0.56638347  1
  K  K3  1  0.75000000  0.17702434  0.43361653  1
  Al  Al4  1  0.25000000  0.18152216  0.13167666  1
  Al  Al5  1  0.75000000  0.81847784  0.86832334  1
  Al  Al6  1  0.25000000  0.68152216  0.36832334  1
  Al  Al7  1  0.75000000  0.31847784  0.63167666  1
  Sb  Sb8  1  0.75000000  0.82828626  0.39905368  1
  Sb  Sb9  1  0.25000000  0.17171374  0.60094632  1
  Sb  Sb10  1  0.75000000  0.32828626  0.10094632  1
  Sb  Sb11  1  0.25000000  0.67171374  0.89905368  1
  Sb  Sb12  1  0.75000000  0.38773240  0.77496739  1
  Sb  Sb13  1  0.25000000  0.61226760  0.22503261  1
  Sb  Sb14  1  0.75000000  0.88773240  0.72503261  1
  Sb  Sb15  1  0.25000000  0.11226760  0.27496739  1
  Sb  Sb16  1  0.75000000  0.53428001  0.54983115  1
  Sb  Sb17  1  0.25000000  0.46571999  0.45016885  1
  Sb  Sb18  1  0.75000000  0.03428001  0.95016885  1
  Sb  Sb19  1  0.25000000  0.96571999  0.04983115  1
  Sb  Sb20  1  0.75000000  0.93122256  0.25320910  1
  Sb  Sb21  1  0.25000000  0.06877744  0.74679090  1
  Sb  Sb22  1  0.75000000  0.43122256  0.24679090  1
  Sb  Sb23  1  0.25000000  0.56877744  0.75320910  1
