# generated using pymatgen
data_PrBi
_symmetry_space_group_name_H-M   'P 1'
_cell_length_a   4.64099875
_cell_length_b   4.64100001
_cell_length_c   4.64099882
_cell_angle_alpha   60.00000108
_cell_angle_beta   59.99999210
_cell_angle_gamma   59.99999524
_symmetry_Int_Tables_number   1
_chemical_formula_structural   PrBi
_chemical_formula_sum   'Pr1 Bi1'
_cell_volume   70.68372737
_cell_formula_units_Z   1
loop_
 _symmetry_equiv_pos_site_id
 _symmetry_equiv_pos_as_xyz
  1  'x, y, z'
loop_
 _atom_site_type_symbol
 _atom_site_label
 _atom_site_symmetry_multiplicity
 _atom_site_fract_x
 _atom_site_fract_y
 _atom_site_fract_z
 _atom_site_occupancy
  Pr  Pr0  1  0.50000000  0.50000000  0.50000000  1
  Bi  Bi1  1  -0.00000000  0.00000000  0.00000000  1
