# generated using pymatgen
data_Ta2CrO6
_symmetry_space_group_name_H-M   'P 1'
_cell_length_a   4.69836175
_cell_length_b   9.39752948
_cell_length_c   9.12975406
_cell_angle_alpha   89.99990125
_cell_angle_beta   90.00004184
_cell_angle_gamma   90.00085086
_symmetry_Int_Tables_number   1
_chemical_formula_structural   Ta2CrO6
_chemical_formula_sum   'Ta8 Cr4 O24'
_cell_volume   403.10596757
_cell_formula_units_Z   4
loop_
 _symmetry_equiv_pos_site_id
 _symmetry_equiv_pos_as_xyz
  1  'x, y, z'
loop_
 _atom_site_type_symbol
 _atom_site_label
 _atom_site_symmetry_multiplicity
 _atom_site_fract_x
 _atom_site_fract_y
 _atom_site_fract_z
 _atom_site_occupancy
  Ta  Ta0  1  0.49997673  0.24995183  0.16179376  1
  Ta  Ta1  1  0.49996322  0.74998739  0.16176317  1
  Ta  Ta2  1  -0.00002870  0.00005577  0.66177922  1
  Ta  Ta3  1  -0.00003885  0.50000853  0.66178804  1
  Ta  Ta4  1  0.49996735  0.24994973  0.83820648  1
  Ta  Ta5  1  0.49996271  0.74998918  0.83823435  1
  Ta  Ta6  1  -0.00002400  0.00005143  0.33822506  1
  Ta  Ta7  1  -0.00002886  0.50000537  0.33821036  1
  Cr  Cr8  1  0.49999831  0.75007650  0.49999949  1
  Cr  Cr9  1  0.00000114  0.49990946  -0.00000152  1
  Cr  Cr10  1  0.49999787  0.25007706  0.49999977  1
  Cr  Cr11  1  -0.00001206  0.99993790  0.00000114  1
  O  O12  1  0.29656769  0.14827077  0.00000430  1
  O  O13  1  0.29657058  0.64828676  0.00000138  1
  O  O14  1  0.20353901  0.39836948  0.49999734  1
  O  O15  1  0.20347522  0.89840195  0.49999867  1
  O  O16  1  0.79652572  0.10174513  0.49999879  1
  O  O17  1  0.79660633  0.60170383  0.49999628  1
  O  O18  1  0.70351200  0.35159679  0.00000064  1
  O  O19  1  0.70348317  0.85163069  0.00000203  1
  O  O20  1  0.30174450  0.15092961  0.33268822  1
  O  O21  1  0.30171299  0.65091801  0.33264584  1
  O  O22  1  0.19826923  0.40086164  0.83262098  1
  O  O23  1  0.19825778  0.90088239  0.83264748  1
  O  O24  1  0.80170850  0.09906052  0.83267943  1
  O  O25  1  0.80174913  0.59908176  0.83269071  1
  O  O26  1  0.80171061  0.09906318  0.16732612  1
  O  O27  1  0.80174882  0.59908260  0.16731050  1
  O  O28  1  0.19827280  0.40086441  0.16737927  1
  O  O29  1  0.19825797  0.90088220  0.16735813  1
  O  O30  1  0.69825723  0.34911312  0.33263056  1
  O  O31  1  0.69828927  0.84914526  0.33259916  1
  O  O32  1  0.30174678  0.15092900  0.66730710  1
  O  O33  1  0.30171273  0.65091866  0.66735208  1
  O  O34  1  0.69825609  0.34911291  0.66736693  1
  O  O35  1  0.69828897  0.84914518  0.66739674  1
