# generated using pymatgen
data_H4SO5
_symmetry_space_group_name_H-M   'P 1'
_cell_length_a   6.93437419
_cell_length_b   7.08714862
_cell_length_c   8.01797539
_cell_angle_alpha   72.80900561
_cell_angle_beta   90.00000000
_cell_angle_gamma   90.00000000
_symmetry_Int_Tables_number   1
_chemical_formula_structural   H4SO5
_chemical_formula_sum   'H16 S4 O20'
_cell_volume   376.43898803
_cell_formula_units_Z   4
loop_
 _symmetry_equiv_pos_site_id
 _symmetry_equiv_pos_as_xyz
  1  'x, y, z'
loop_
 _atom_site_type_symbol
 _atom_site_label
 _atom_site_symmetry_multiplicity
 _atom_site_fract_x
 _atom_site_fract_y
 _atom_site_fract_z
 _atom_site_occupancy
  H  H0  1  0.86927541  0.23055187  0.71299544  1
  H  H1  1  0.13072459  0.23055187  0.21299544  1
  H  H2  1  0.06383216  0.60781897  0.38309728  1
  H  H3  1  0.56362465  0.40919742  0.10032306  1
  H  H4  1  0.43637535  0.40919742  0.60032306  1
  H  H5  1  0.93616784  0.60781897  0.88309728  1
  H  H6  1  0.55308664  0.91737589  0.07671740  1
  H  H7  1  0.44691336  0.91737589  0.57671740  1
  H  H8  1  0.94689458  0.09963808  0.90680739  1
  H  H9  1  0.08633470  0.27818664  0.78459178  1
  H  H10  1  0.58648424  0.73872417  0.69874497  1
  H  H11  1  0.36946678  0.78623390  0.77050883  1
  H  H12  1  0.63053322  0.78623390  0.27050883  1
  H  H13  1  0.41351576  0.73872417  0.19874497  1
  H  H14  1  0.05310542  0.09963808  0.40680739  1
  H  H15  1  0.91366530  0.27818664  0.28459178  1
  S  S16  1  0.90403203  0.75786814  0.53264449  1
  S  S17  1  0.40388364  0.25901600  0.95086010  1
  S  S18  1  0.59611636  0.25901600  0.45086010  1
  S  S19  1  0.09596797  0.75786814  0.03264449  1
  O  O20  1  0.23964356  0.84674369  0.90188001  1
  O  O21  1  0.73980359  0.17003823  0.58158708  1
  O  O22  1  0.26019641  0.17003823  0.08158708  1
  O  O23  1  0.76035644  0.84674369  0.40188001  1
  O  O24  1  0.81551194  0.67820886  0.70583934  1
  O  O25  1  0.31540291  0.33862876  0.77765976  1
  O  O26  1  0.68459709  0.33862876  0.27765976  1
  O  O27  1  0.18448806  0.67820886  0.20583934  1
  O  O28  1  0.98748381  0.57037151  0.49533490  1
  O  O29  1  0.48712701  0.44659291  0.98820626  1
  O  O30  1  0.51287299  0.44659291  0.48820626  1
  O  O31  1  0.01251619  0.57037151  0.99533490  1
  O  O32  1  0.06366866  0.89031934  0.53250218  1
  O  O33  1  0.56370220  0.12673826  0.95109230  1
  O  O34  1  0.43629780  0.12673826  0.45109230  1
  O  O35  1  0.93633134  0.89031934  0.03250218  1
  O  O36  1  0.95030502  0.23551203  0.81638248  1
  O  O37  1  0.45040516  0.78144933  0.66706796  1
  O  O38  1  0.54959484  0.78144933  0.16706796  1
  O  O39  1  0.04969498  0.23551203  0.31638248  1
