# generated using pymatgen
data_Tl5Se2Br
_symmetry_space_group_name_H-M   'P 1'
_cell_length_a   8.72540923
_cell_length_b   8.72540816
_cell_length_c   9.00683753
_cell_angle_alpha   118.97165122
_cell_angle_beta   118.97165270
_cell_angle_gamma   89.99999950
_symmetry_Int_Tables_number   1
_chemical_formula_structural   Tl5Se2Br
_chemical_formula_sum   'Tl10 Se4 Br2'
_cell_volume   499.56526477
_cell_formula_units_Z   2
loop_
 _symmetry_equiv_pos_site_id
 _symmetry_equiv_pos_as_xyz
  1  'x, y, z'
loop_
 _atom_site_type_symbol
 _atom_site_label
 _atom_site_symmetry_multiplicity
 _atom_site_fract_x
 _atom_site_fract_y
 _atom_site_fract_z
 _atom_site_occupancy
  Tl  Tl0  1  0.20893209  0.00302700  0.71195909  1
  Tl  Tl1  1  0.00302700  0.50302700  0.71195909  1
  Tl  Tl2  1  0.70893209  0.20893209  0.71195909  1
  Tl  Tl3  1  0.99697300  0.49697300  0.28804091  1
  Tl  Tl4  1  0.50302700  0.70893209  0.71195909  1
  Tl  Tl5  1  0.79106791  0.99697300  0.28804091  1
  Tl  Tl6  1  0.49697300  0.29106791  0.28804091  1
  Tl  Tl7  1  0.29106791  0.79106791  0.28804091  1
  Tl  Tl8  1  0.50000000  0.50000000  0.00000000  1
  Tl  Tl9  1  0.00000000  -0.00000000  0.00000000  1
  Se  Se10  1  0.65832394  0.15832394  0.00000000  1
  Se  Se11  1  0.84167606  0.65832394  -0.00000000  1
  Se  Se12  1  0.15832394  0.34167606  0.00000000  1
  Se  Se13  1  0.34167606  0.84167606  -0.00000000  1
  Br  Br14  1  0.75000000  0.75000000  0.50000000  1
  Br  Br15  1  0.25000000  0.25000000  0.50000000  1
