# generated using pymatgen
data_Tm(FeSi)2
_symmetry_space_group_name_H-M   'P 1'
_cell_length_a   3.85250990
_cell_length_b   3.85250977
_cell_length_c   5.59224579
_cell_angle_alpha   110.14828157
_cell_angle_beta   110.14828126
_cell_angle_gamma   90.00001451
_symmetry_Int_Tables_number   1
_chemical_formula_structural   Tm(FeSi)2
_chemical_formula_sum   'Tm1 Fe2 Si2'
_cell_volume   72.48575220
_cell_formula_units_Z   1
loop_
 _symmetry_equiv_pos_site_id
 _symmetry_equiv_pos_as_xyz
  1  'x, y, z'
loop_
 _atom_site_type_symbol
 _atom_site_label
 _atom_site_symmetry_multiplicity
 _atom_site_fract_x
 _atom_site_fract_y
 _atom_site_fract_z
 _atom_site_occupancy
  Tm  Tm0  1  -0.00000000  0.00000000  0.00000000  1
  Fe  Fe1  1  0.75000000  0.25000000  0.50000000  1
  Fe  Fe2  1  0.25000000  0.75000000  0.50000000  1
  Si  Si3  1  0.62679628  0.62679628  0.25359456  1
  Si  Si4  1  0.37320372  0.37320372  0.74640544  1
