# generated using pymatgen
data_He
_symmetry_space_group_name_H-M   'P 1'
_cell_length_a   2.84247426
_cell_length_b   2.84247319
_cell_length_c   4.62489663
_cell_angle_alpha   89.99999995
_cell_angle_beta   90.00000328
_cell_angle_gamma   120.00007368
_symmetry_Int_Tables_number   1
_chemical_formula_structural   He
_chemical_formula_sum   He2
_cell_volume   32.36124770
_cell_formula_units_Z   2
loop_
 _symmetry_equiv_pos_site_id
 _symmetry_equiv_pos_as_xyz
  1  'x, y, z'
loop_
 _atom_site_type_symbol
 _atom_site_label
 _atom_site_symmetry_multiplicity
 _atom_site_fract_x
 _atom_site_fract_y
 _atom_site_fract_z
 _atom_site_occupancy
  He  He0  1  0.33333190  0.66666885  0.24999902  1
  He  He1  1  0.66666810  0.33333115  0.75000098  1
