# generated using pymatgen
data_PrMnO3
_symmetry_space_group_name_H-M   'P 1'
_cell_length_a   5.47926694
_cell_length_b   5.57528151
_cell_length_c   7.78248656
_cell_angle_alpha   90.00000000
_cell_angle_beta   90.00000000
_cell_angle_gamma   90.00000000
_symmetry_Int_Tables_number   1
_chemical_formula_structural   PrMnO3
_chemical_formula_sum   'Pr4 Mn4 O12'
_cell_volume   237.74294559
_cell_formula_units_Z   4
loop_
 _symmetry_equiv_pos_site_id
 _symmetry_equiv_pos_as_xyz
  1  'x, y, z'
loop_
 _atom_site_type_symbol
 _atom_site_label
 _atom_site_symmetry_multiplicity
 _atom_site_fract_x
 _atom_site_fract_y
 _atom_site_fract_z
 _atom_site_occupancy
  Pr  Pr0  1  0.00986338  0.95563148  0.75000000  1
  Pr  Pr1  1  0.50986338  0.54436852  0.25000000  1
  Pr  Pr2  1  0.49013662  0.45563148  0.75000000  1
  Pr  Pr3  1  0.99013662  0.04436852  0.25000000  1
  Mn  Mn4  1  0.50000000  0.00000000  0.50000000  1
  Mn  Mn5  1  0.00000000  0.50000000  0.50000000  1
  Mn  Mn6  1  0.00000000  0.50000000  0.00000000  1
  Mn  Mn7  1  0.50000000  0.00000000  0.00000000  1
  O  O8  1  0.71570057  0.28991657  0.45877738  1
  O  O9  1  0.21570057  0.21008343  0.54122262  1
  O  O10  1  0.78429943  0.78991657  0.04122262  1
  O  O11  1  0.28429943  0.71008343  0.95877738  1
  O  O12  1  0.28429943  0.71008343  0.54122262  1
  O  O13  1  0.78429943  0.78991657  0.45877738  1
  O  O14  1  0.21570057  0.21008343  0.95877738  1
  O  O15  1  0.71570057  0.28991657  0.04122262  1
  O  O16  1  0.07655775  0.48424730  0.25000000  1
  O  O17  1  0.57655775  0.01575270  0.75000000  1
  O  O18  1  0.42344225  0.98424730  0.25000000  1
  O  O19  1  0.92344225  0.51575270  0.75000000  1
