# generated using pymatgen
data_Na2CaH10C2O11
_symmetry_space_group_name_H-M   'P 1'
_cell_length_a   8.10934570
_cell_length_b   8.10934570
_cell_length_c   11.11939944
_cell_angle_alpha   57.26493499
_cell_angle_beta   57.26493499
_cell_angle_gamma   55.19867999
_symmetry_Int_Tables_number   1
_chemical_formula_structural   Na2CaH10C2O11
_chemical_formula_sum   'Na4 Ca2 H20 C4 O22'
_cell_volume   475.70029406
_cell_formula_units_Z   2
loop_
 _symmetry_equiv_pos_site_id
 _symmetry_equiv_pos_as_xyz
  1  'x, y, z'
loop_
 _atom_site_type_symbol
 _atom_site_label
 _atom_site_symmetry_multiplicity
 _atom_site_fract_x
 _atom_site_fract_y
 _atom_site_fract_z
 _atom_site_occupancy
  Na  Na0  1  0.10369330  0.72882761  0.48549600  1
  Na  Na1  1  0.27117239  0.89630670  0.01450400  1
  Na  Na2  1  0.89630670  0.27117239  0.51450400  1
  Na  Na3  1  0.72882761  0.10369330  0.98549600  1
  Ca  Ca4  1  0.19513848  0.80486152  0.75000000  1
  Ca  Ca5  1  0.80486152  0.19513848  0.25000000  1
  H  H6  1  0.23261391  0.41070504  0.75073536  1
  H  H7  1  0.58929496  0.76738609  0.74926464  1
  H  H8  1  0.76738609  0.58929496  0.24926464  1
  H  H9  1  0.41070504  0.23261391  0.25073536  1
  H  H10  1  0.21789457  0.34522308  0.91939229  1
  H  H11  1  0.65477692  0.78210543  0.58060771  1
  H  H12  1  0.28251377  0.48327831  0.04738867  1
  H  H13  1  0.51672169  0.71748623  0.45261133  1
  H  H14  1  0.71748623  0.51672169  0.95261133  1
  H  H15  1  0.48327831  0.28251377  0.54738867  1
  H  H16  1  0.08957725  0.69809457  0.07574236  1
  H  H17  1  0.34522308  0.21789457  0.41939229  1
  H  H18  1  0.91042275  0.30190543  0.92425764  1
  H  H19  1  0.69809457  0.08957725  0.57574236  1
  H  H20  1  0.52986117  0.34686415  0.77135964  1
  H  H21  1  0.65313585  0.47013883  0.72864036  1
  H  H22  1  0.47013883  0.65313585  0.22864036  1
  H  H23  1  0.34686415  0.52986117  0.27135964  1
  H  H24  1  0.78210543  0.65477692  0.08060771  1
  H  H25  1  0.30190543  0.91042275  0.42425764  1
  C  C26  1  0.78388910  0.84229507  0.81701429  1
  C  C27  1  0.84229507  0.78388910  0.31701429  1
  C  C28  1  0.15770493  0.21611090  0.68298571  1
  C  C29  1  0.21611090  0.15770493  0.18298571  1
  O  O30  1  0.89213032  0.89967636  0.67384829  1
  O  O31  1  0.77501092  0.36037648  0.99908173  1
  O  O32  1  0.36037648  0.77501092  0.49908173  1
  O  O33  1  0.22498908  0.63962352  0.00091827  1
  O  O34  1  0.44209651  0.25891936  0.31284407  1
  O  O35  1  0.74108064  0.55790349  0.18715593  1
  O  O36  1  0.55790349  0.74108064  0.68715593  1
  O  O37  1  0.25891936  0.44209651  0.81284407  1
  O  O38  1  0.63962352  0.22498908  0.50091827  1
  O  O39  1  0.10032364  0.10786968  0.82615171  1
  O  O40  1  0.10786968  0.10032364  0.32615171  1
  O  O41  1  0.89967636  0.89213032  0.17384829  1
  O  O42  1  0.62625301  0.79502348  0.86557826  1
  O  O43  1  0.20497652  0.37374699  0.63442174  1
  O  O44  1  0.37374699  0.20497652  0.13442174  1
  O  O45  1  0.79502348  0.62625301  0.36557826  1
  O  O46  1  0.17183511  0.15951281  0.58784171  1
  O  O47  1  0.67446368  0.32553632  0.75000000  1
  O  O48  1  0.15951281  0.17183511  0.08784171  1
  O  O49  1  0.84048719  0.82816489  0.91215829  1
  O  O50  1  0.32553632  0.67446368  0.25000000  1
  O  O51  1  0.82816489  0.84048719  0.41215829  1
