# generated using pymatgen
data_U2Cl5O2
_symmetry_space_group_name_H-M   'P 1'
_cell_length_a   4.09277070
_cell_length_b   8.12590804
_cell_length_c   8.12570505
_cell_angle_alpha   117.39105838
_cell_angle_beta   90.00000000
_cell_angle_gamma   90.00000000
_symmetry_Int_Tables_number   1
_chemical_formula_structural   U2Cl5O2
_chemical_formula_sum   'U2 Cl5 O2'
_cell_volume   239.94304328
_cell_formula_units_Z   1
loop_
 _symmetry_equiv_pos_site_id
 _symmetry_equiv_pos_as_xyz
  1  'x, y, z'
loop_
 _atom_site_type_symbol
 _atom_site_label
 _atom_site_symmetry_multiplicity
 _atom_site_fract_x
 _atom_site_fract_y
 _atom_site_fract_z
 _atom_site_occupancy
  U  U0  1  0.00000000  0.80267415  0.19728169  1
  U  U1  1  0.00000000  0.19732585  0.80271831  1
  Cl  Cl2  1  0.00000000  0.17029998  0.45155255  1
  Cl  Cl3  1  0.00000000  0.82970002  0.54844745  1
  Cl  Cl4  1  -0.00000000  -0.00000000  0.00000000  1
  Cl  Cl5  1  -0.00000000  0.45154758  0.17029192  1
  Cl  Cl6  1  0.00000000  0.54845242  0.82970808  1
  O  O7  1  0.50000000  0.80214026  0.19784489  1
  O  O8  1  0.50000000  0.19785974  0.80215511  1
