# generated using pymatgen
data_Ce3Sn7
_symmetry_space_group_name_H-M   'P 1'
_cell_length_a   4.57738084
_cell_length_b   4.64156202
_cell_length_c   13.18240275
_cell_angle_alpha   90.00000000
_cell_angle_beta   100.05769004
_cell_angle_gamma   90.00000000
_symmetry_Int_Tables_number   1
_chemical_formula_structural   Ce3Sn7
_chemical_formula_sum   'Ce3 Sn7'
_cell_volume   275.77183454
_cell_formula_units_Z   1
loop_
 _symmetry_equiv_pos_site_id
 _symmetry_equiv_pos_as_xyz
  1  'x, y, z'
loop_
 _atom_site_type_symbol
 _atom_site_label
 _atom_site_symmetry_multiplicity
 _atom_site_fract_x
 _atom_site_fract_y
 _atom_site_fract_z
 _atom_site_occupancy
  Ce  Ce0  1  0.18382176  -0.00000000  0.36614499  1
  Ce  Ce1  1  0.81607519  -0.00000000  0.63379017  1
  Ce  Ce2  1  0.00009427  -0.00000000  0.00013454  1
  Sn  Sn3  1  0.28778803  0.50000000  0.57625933  1
  Sn  Sn4  1  0.71206828  0.50000000  0.42352920  1
  Sn  Sn5  1  0.09395429  0.50000000  0.18863540  1
  Sn  Sn6  1  0.50005929  0.50000000  0.00000492  1
  Sn  Sn7  1  0.59362916  -0.00000000  0.18664790  1
  Sn  Sn8  1  0.40642614  0.00000000  0.81344386  1
  Sn  Sn9  1  0.90608860  0.50000000  0.81140768  1
