# generated using pymatgen
data_FeBr3
_symmetry_space_group_name_H-M   'P 1'
_cell_length_a   7.34248877
_cell_length_b   7.34241832
_cell_length_c   7.34260502
_cell_angle_alpha   52.38286825
_cell_angle_beta   52.37636999
_cell_angle_gamma   52.38473938
_symmetry_Int_Tables_number   1
_chemical_formula_structural   FeBr3
_chemical_formula_sum   'Fe2 Br6'
_cell_volume   229.82811797
_cell_formula_units_Z   2
loop_
 _symmetry_equiv_pos_site_id
 _symmetry_equiv_pos_as_xyz
  1  'x, y, z'
loop_
 _atom_site_type_symbol
 _atom_site_label
 _atom_site_symmetry_multiplicity
 _atom_site_fract_x
 _atom_site_fract_y
 _atom_site_fract_z
 _atom_site_occupancy
  Fe  Fe0  1  0.33369938  0.33374212  0.33369289  1
  Fe  Fe1  1  0.66630062  0.66625788  0.66630711  1
  Br  Br2  1  0.72021008  0.43467523  0.07650201  1
  Br  Br3  1  0.07658975  0.72018019  0.43462715  1
  Br  Br4  1  0.43462888  0.07658895  0.72016928  1
  Br  Br5  1  0.27978992  0.56532477  0.92349799  1
  Br  Br6  1  0.92341025  0.27981981  0.56537285  1
  Br  Br7  1  0.56537112  0.92341105  0.27983072  1
