# generated using pymatgen
data_Gd(HO)3
_symmetry_space_group_name_H-M   'P 1'
_cell_length_a   6.31919854
_cell_length_b   6.31909695
_cell_length_c   3.60869917
_cell_angle_alpha   89.99999602
_cell_angle_beta   90.00000212
_cell_angle_gamma   119.99792717
_symmetry_Int_Tables_number   1
_chemical_formula_structural   Gd(HO)3
_chemical_formula_sum   'Gd2 H6 O6'
_cell_volume   124.79793564
_cell_formula_units_Z   2
loop_
 _symmetry_equiv_pos_site_id
 _symmetry_equiv_pos_as_xyz
  1  'x, y, z'
loop_
 _atom_site_type_symbol
 _atom_site_label
 _atom_site_symmetry_multiplicity
 _atom_site_fract_x
 _atom_site_fract_y
 _atom_site_fract_z
 _atom_site_occupancy
  Gd  Gd0  1  0.66667833  0.33331107  0.74999995  1
  Gd  Gd1  1  0.33333090  0.66668433  0.24999996  1
  H  H2  1  0.72438490  0.86332909  0.74999992  1
  H  H3  1  0.86110778  0.72433864  0.25000000  1
  H  H4  1  0.13897424  0.27557337  0.75000015  1
  H  H5  1  0.27573411  0.13686439  0.25000008  1
  H  H6  1  0.86320320  0.13887881  0.24999993  1
  H  H7  1  0.13657599  0.86100990  0.74999994  1
  O  O8  1  0.91665249  0.60702704  0.25000003  1
  O  O9  1  0.60709205  0.69047993  0.74999997  1
  O  O10  1  0.08339048  0.39285449  0.75000023  1
  O  O11  1  0.39305244  0.30968808  0.24999998  1
  O  O12  1  0.69037329  0.08335870  0.24999997  1
  O  O13  1  0.30944979  0.91660217  0.74999990  1
