# generated using pymatgen
data_EuPt2
_symmetry_space_group_name_H-M   'P 1'
_cell_length_a   5.48212353
_cell_length_b   5.48208539
_cell_length_c   5.48223522
_cell_angle_alpha   60.00156683
_cell_angle_beta   60.00247065
_cell_angle_gamma   60.00047383
_symmetry_Int_Tables_number   1
_chemical_formula_structural   EuPt2
_chemical_formula_sum   'Eu2 Pt4'
_cell_volume   116.50701834
_cell_formula_units_Z   2
loop_
 _symmetry_equiv_pos_site_id
 _symmetry_equiv_pos_as_xyz
  1  'x, y, z'
loop_
 _atom_site_type_symbol
 _atom_site_label
 _atom_site_symmetry_multiplicity
 _atom_site_fract_x
 _atom_site_fract_y
 _atom_site_fract_z
 _atom_site_occupancy
  Eu  Eu0  1  0.87499222  0.87500363  0.87500995  1
  Eu  Eu1  1  0.12500778  0.12499637  0.12499005  1
  Pt  Pt2  1  0.50000000  0.50000000  0.50000000  1
  Pt  Pt3  1  0.50000000  0.50000000  0.00000000  1
  Pt  Pt4  1  -0.00000000  0.50000000  0.50000000  1
  Pt  Pt5  1  0.50000000  -0.00000000  0.50000000  1
