# generated using pymatgen
data_Eu(SiAu)2
_symmetry_space_group_name_H-M   'P 1'
_cell_length_a   4.35696217
_cell_length_b   4.35696194
_cell_length_c   5.93087233
_cell_angle_alpha   111.54994044
_cell_angle_beta   111.54993996
_cell_angle_gamma   90.00001124
_symmetry_Int_Tables_number   1
_chemical_formula_structural   Eu(SiAu)2
_chemical_formula_sum   'Eu1 Si2 Au2'
_cell_volume   96.20468808
_cell_formula_units_Z   1
loop_
 _symmetry_equiv_pos_site_id
 _symmetry_equiv_pos_as_xyz
  1  'x, y, z'
loop_
 _atom_site_type_symbol
 _atom_site_label
 _atom_site_symmetry_multiplicity
 _atom_site_fract_x
 _atom_site_fract_y
 _atom_site_fract_z
 _atom_site_occupancy
  Eu  Eu0  1  -0.00000000  -0.00000000  -0.00000000  1
  Si  Si1  1  0.61529006  0.61529006  0.23058212  1
  Si  Si2  1  0.38470994  0.38470994  0.76941788  1
  Au  Au3  1  0.25000000  0.75000000  0.50000000  1
  Au  Au4  1  0.75000000  0.25000000  0.50000000  1
