# generated using pymatgen
data_DyGePt
_symmetry_space_group_name_H-M   'P 1'
_cell_length_a   4.35816040
_cell_length_b   7.01813796
_cell_length_c   7.55886069
_cell_angle_alpha   90.00007024
_cell_angle_beta   90.00000000
_cell_angle_gamma   90.00000000
_symmetry_Int_Tables_number   1
_chemical_formula_structural   DyGePt
_chemical_formula_sum   'Dy4 Ge4 Pt4'
_cell_volume   231.19660517
_cell_formula_units_Z   4
loop_
 _symmetry_equiv_pos_site_id
 _symmetry_equiv_pos_as_xyz
  1  'x, y, z'
loop_
 _atom_site_type_symbol
 _atom_site_label
 _atom_site_symmetry_multiplicity
 _atom_site_fract_x
 _atom_site_fract_y
 _atom_site_fract_z
 _atom_site_occupancy
  Dy  Dy0  1  0.75000000  0.50305492  0.79521029  1
  Dy  Dy1  1  0.25000000  0.99694520  0.29521012  1
  Dy  Dy2  1  0.75000000  0.00305480  0.70479088  1
  Dy  Dy3  1  0.25000000  0.49694508  0.20479071  1
  Ge  Ge4  1  0.25000000  0.81017308  0.91201970  1
  Ge  Ge5  1  0.25000000  0.31017291  0.58798182  1
  Ge  Ge6  1  0.75000000  0.18982692  0.08798330  1
  Ge  Ge7  1  0.75000000  0.68982709  0.41201718  1
  Pt  Pt8  1  0.25000000  0.70530697  0.58371492  1
  Pt  Pt9  1  0.25000000  0.20530715  0.91628229  1
  Pt  Pt10  1  0.75000000  0.79469185  0.08371471  1
  Pt  Pt11  1  0.75000000  0.29469303  0.41628408  1
