# generated using pymatgen
data_Rb3H(SO4)2
_symmetry_space_group_name_H-M   'P 1'
_cell_length_a   5.87898405
_cell_length_b   8.05534034
_cell_length_c   10.06275644
_cell_angle_alpha   101.87951223
_cell_angle_beta   90.00000000
_cell_angle_gamma   111.40218343
_symmetry_Int_Tables_number   1
_chemical_formula_structural   Rb3H(SO4)2
_chemical_formula_sum   'Rb6 H2 S4 O16'
_cell_volume   432.70183497
_cell_formula_units_Z   2
loop_
 _symmetry_equiv_pos_site_id
 _symmetry_equiv_pos_as_xyz
  1  'x, y, z'
loop_
 _atom_site_type_symbol
 _atom_site_label
 _atom_site_symmetry_multiplicity
 _atom_site_fract_x
 _atom_site_fract_y
 _atom_site_fract_z
 _atom_site_occupancy
  Rb  Rb0  1  0.41689047  0.38367046  0.15223568  1
  Rb  Rb1  1  0.03322101  0.61632954  0.34776432  1
  Rb  Rb2  1  0.58310953  0.61632954  0.84776432  1
  Rb  Rb3  1  0.96677899  0.38367046  0.65223568  1
  Rb  Rb4  1  0.24696221  -0.00000000  0.75000000  1
  Rb  Rb5  1  0.75303779  0.00000000  0.25000000  1
  H  H6  1  0.50000000  -0.00000000  0.50000000  1
  H  H7  1  0.50000000  -0.00000000  -0.00000000  1
  S  S8  1  0.60231127  0.76815998  0.53543102  1
  S  S9  1  0.83415029  0.23184002  0.96456898  1
  S  S10  1  0.39768873  0.23184002  0.46456898  1
  S  S11  1  0.16584971  0.76815998  0.03543102  1
  O  O12  1  0.80400122  0.74479019  0.60261097  1
  O  O13  1  0.05921003  0.25520981  0.89738903  1
  O  O14  1  0.19599878  0.25520981  0.39738903  1
  O  O15  1  0.94078997  0.74479019  0.10261097  1
  O  O16  1  0.57602521  0.69411900  0.38811131  1
  O  O17  1  0.88190721  0.30588100  0.11188869  1
  O  O18  1  0.42397479  0.30588100  0.61188869  1
  O  O19  1  0.11809279  0.69411900  0.88811131  1
  O  O20  1  0.31171859  0.97478521  0.05588033  1
  O  O21  1  0.33693338  0.02521479  0.44411967  1
  O  O22  1  0.68828141  0.02521479  0.94411967  1
  O  O23  1  0.66306662  0.97478521  0.55588033  1
  O  O24  1  0.32140218  0.69236979  0.09593362  1
  O  O25  1  0.62903139  0.30763021  0.40406638  1
  O  O26  1  0.67859782  0.30763021  0.90406638  1
  O  O27  1  0.37096861  0.69236979  0.59593362  1
