# generated using pymatgen
data_UGeRh
_symmetry_space_group_name_H-M   'P 1'
_cell_length_a   4.43473276
_cell_length_b   6.86256246
_cell_length_c   7.47560782
_cell_angle_alpha   90.00000000
_cell_angle_beta   90.00000000
_cell_angle_gamma   90.00000000
_symmetry_Int_Tables_number   1
_chemical_formula_structural   UGeRh
_chemical_formula_sum   'U4 Ge4 Rh4'
_cell_volume   227.50988660
_cell_formula_units_Z   4
loop_
 _symmetry_equiv_pos_site_id
 _symmetry_equiv_pos_as_xyz
  1  'x, y, z'
loop_
 _atom_site_type_symbol
 _atom_site_label
 _atom_site_symmetry_multiplicity
 _atom_site_fract_x
 _atom_site_fract_y
 _atom_site_fract_z
 _atom_site_occupancy
  U  U0  1  0.25000000  0.48583390  0.70962235  1
  U  U1  1  0.75000000  0.51416610  0.29037765  1
  U  U2  1  0.25000000  0.98583390  0.79037765  1
  U  U3  1  0.75000000  0.01416610  0.20962235  1
  Ge  Ge4  1  0.25000000  0.31101772  0.08612252  1
  Ge  Ge5  1  0.75000000  0.68898228  0.91387748  1
  Ge  Ge6  1  0.25000000  0.81101772  0.41387748  1
  Ge  Ge7  1  0.75000000  0.18898228  0.58612252  1
  Rh  Rh8  1  0.75000000  0.78262237  0.58208533  1
  Rh  Rh9  1  0.25000000  0.21737763  0.41791467  1
  Rh  Rh10  1  0.75000000  0.28262237  0.91791467  1
  Rh  Rh11  1  0.25000000  0.71737763  0.08208533  1
