# generated using pymatgen
data_YbBr2
_symmetry_space_group_name_H-M   'P 1'
_cell_length_a   3.55853624
_cell_length_b   6.86628826
_cell_length_c   7.13112000
_cell_angle_alpha   90.00000000
_cell_angle_beta   90.00000000
_cell_angle_gamma   90.00000000
_symmetry_Int_Tables_number   1
_chemical_formula_structural   YbBr2
_chemical_formula_sum   'Yb2 Br4'
_cell_volume   174.24132691
_cell_formula_units_Z   2
loop_
 _symmetry_equiv_pos_site_id
 _symmetry_equiv_pos_as_xyz
  1  'x, y, z'
loop_
 _atom_site_type_symbol
 _atom_site_label
 _atom_site_symmetry_multiplicity
 _atom_site_fract_x
 _atom_site_fract_y
 _atom_site_fract_z
 _atom_site_occupancy
  Yb  Yb0  1  0.50000000  0.50000000  0.50000000  1
  Yb  Yb1  1  0.00000000  0.00000000  0.00000000  1
  Br  Br2  1  0.50000000  0.73292320  0.17459198  1
  Br  Br3  1  0.50000000  0.26707680  0.82540802  1
  Br  Br4  1  0.00000000  0.23292320  0.32540802  1
  Br  Br5  1  0.00000000  0.76707680  0.67459198  1
