# generated using pymatgen
data_YbCeSe3
_symmetry_space_group_name_H-M   'P 1'
_cell_length_a   6.88037182
_cell_length_b   6.88037182
_cell_length_c   9.94826891
_cell_angle_alpha   90.00000000
_cell_angle_beta   90.00000000
_cell_angle_gamma   146.01358902
_symmetry_Int_Tables_number   1
_chemical_formula_structural   YbCeSe3
_chemical_formula_sum   'Yb2 Ce2 Se6'
_cell_volume   263.25718742
_cell_formula_units_Z   2
loop_
 _symmetry_equiv_pos_site_id
 _symmetry_equiv_pos_as_xyz
  1  'x, y, z'
loop_
 _atom_site_type_symbol
 _atom_site_label
 _atom_site_symmetry_multiplicity
 _atom_site_fract_x
 _atom_site_fract_y
 _atom_site_fract_z
 _atom_site_occupancy
  Yb  Yb0  1  0.00000000  0.00000000  0.00000000  1
  Yb  Yb1  1  0.00000000  0.00000000  0.50000000  1
  Ce  Ce2  1  0.25212336  0.74787664  0.75000000  1
  Ce  Ce3  1  0.74787664  0.25212336  0.25000000  1
  Se  Se4  1  0.08490920  0.91509080  0.25000000  1
  Se  Se5  1  0.91509080  0.08490920  0.75000000  1
  Se  Se6  1  0.64212387  0.35787613  0.56265174  1
  Se  Se7  1  0.35787613  0.64212387  0.43734826  1
  Se  Se8  1  0.64212387  0.35787613  0.93734826  1
  Se  Se9  1  0.35787613  0.64212387  0.06265174  1
