# generated using pymatgen
data_PH2F3
_symmetry_space_group_name_H-M   'P 1'
_cell_length_a   4.84339443
_cell_length_b   4.84339365
_cell_length_c   6.03623778
_cell_angle_alpha   90.00000000
_cell_angle_beta   90.00000000
_cell_angle_gamma   110.35686676
_symmetry_Int_Tables_number   1
_chemical_formula_structural   PH2F3
_chemical_formula_sum   'P2 H4 F6'
_cell_volume   132.75707242
_cell_formula_units_Z   2
loop_
 _symmetry_equiv_pos_site_id
 _symmetry_equiv_pos_as_xyz
  1  'x, y, z'
loop_
 _atom_site_type_symbol
 _atom_site_label
 _atom_site_symmetry_multiplicity
 _atom_site_fract_x
 _atom_site_fract_y
 _atom_site_fract_z
 _atom_site_occupancy
  P  P0  1  0.68452118  0.31547882  0.24992581  1
  P  P1  1  0.31547882  0.68452118  0.74992581  1
  H  H2  1  0.83358275  0.61400556  0.26962193  1
  H  H3  1  0.16641725  0.38599444  0.76962193  1
  H  H4  1  0.38599444  0.16641725  0.26962193  1
  H  H5  1  0.61400556  0.83358275  0.76962193  1
  F  F6  1  0.64213024  0.35786976  0.98149353  1
  F  F7  1  0.72643497  0.27356503  0.51678029  1
  F  F8  1  0.12334384  0.87665616  0.69555650  1
  F  F9  1  0.87665616  0.12334384  0.19555650  1
  F  F10  1  0.27356503  0.72643497  0.01678029  1
  F  F11  1  0.35786976  0.64213024  0.48149353  1
