# generated using pymatgen
data_Nb2Cr4Si5
_symmetry_space_group_name_H-M   'P 1'
_cell_length_a   9.06246843
_cell_length_b   9.06235625
_cell_length_c   9.06208896
_cell_angle_alpha   148.90152704
_cell_angle_beta   131.09323208
_cell_angle_gamma   59.09809246
_symmetry_Int_Tables_number   1
_chemical_formula_structural   Nb2Cr4Si5
_chemical_formula_sum   'Nb4 Cr8 Si10'
_cell_volume   287.37916780
_cell_formula_units_Z   2
loop_
 _symmetry_equiv_pos_site_id
 _symmetry_equiv_pos_as_xyz
  1  'x, y, z'
loop_
 _atom_site_type_symbol
 _atom_site_label
 _atom_site_symmetry_multiplicity
 _atom_site_fract_x
 _atom_site_fract_y
 _atom_site_fract_z
 _atom_site_occupancy
  Nb  Nb0  1  0.98007165  0.35899506  0.62101949  1
  Nb  Nb1  1  0.01991210  0.64100348  0.37896869  1
  Nb  Nb2  1  0.26201068  0.14098533  0.12106983  1
  Nb  Nb3  1  0.73799811  0.85901102  0.87894363  1
  Cr  Cr4  1  0.30875288  0.05877054  0.75000460  1
  Cr  Cr5  1  0.69125839  0.44124361  0.75001593  1
  Cr  Cr6  1  0.80281734  0.06070499  0.74211376  1
  Cr  Cr7  1  0.19717780  0.93929356  0.25787420  1
  Cr  Cr8  1  0.68145263  0.43925989  0.24210573  1
  Cr  Cr9  1  0.31855476  0.56074314  0.75790053  1
  Cr  Cr10  1  0.69124658  0.94122897  0.24999600  1
  Cr  Cr11  1  0.30874107  0.55875236  0.24998255  1
  Si  Si12  1  0.00000035  0.75001057  0.75001925  1
  Si  Si13  1  -0.00000247  0.24998597  0.24997773  1
  Si  Si14  1  0.35609204  0.43482252  0.92124409  1
  Si  Si15  1  0.64391745  0.56518801  0.07876511  1
  Si  Si16  1  0.00649334  0.21259144  0.79389162  1
  Si  Si17  1  0.99349365  0.78740657  0.20609854  1
  Si  Si18  1  0.58127749  0.28739746  0.29387620  1
  Si  Si19  1  0.41873185  0.71260041  0.70613783  1
  Si  Si20  1  0.51356581  0.93479928  0.57870754  1
  Si  Si21  1  0.48643751  0.06520384  0.42128715  1
