# generated using pymatgen
data_DySiPt
_symmetry_space_group_name_H-M   'P 1'
_cell_length_a   4.27969379
_cell_length_b   6.99434472
_cell_length_c   7.42255227
_cell_angle_alpha   90.00000000
_cell_angle_beta   90.00000000
_cell_angle_gamma   90.00000000
_symmetry_Int_Tables_number   1
_chemical_formula_structural   DySiPt
_chemical_formula_sum   'Dy4 Si4 Pt4'
_cell_volume   222.18410895
_cell_formula_units_Z   4
loop_
 _symmetry_equiv_pos_site_id
 _symmetry_equiv_pos_as_xyz
  1  'x, y, z'
loop_
 _atom_site_type_symbol
 _atom_site_label
 _atom_site_symmetry_multiplicity
 _atom_site_fract_x
 _atom_site_fract_y
 _atom_site_fract_z
 _atom_site_occupancy
  Dy  Dy0  1  0.75000000  0.50360700  0.20181671  1
  Dy  Dy1  1  0.25000000  0.99639300  0.70181671  1
  Dy  Dy2  1  0.75000000  0.00360700  0.29818329  1
  Dy  Dy3  1  0.25000000  0.49639300  0.79818329  1
  Si  Si4  1  0.25000000  0.81329801  0.08713760  1
  Si  Si5  1  0.25000000  0.31329801  0.41286240  1
  Si  Si6  1  0.75000000  0.18670199  0.91286240  1
  Si  Si7  1  0.75000000  0.68670199  0.58713760  1
  Pt  Pt8  1  0.25000000  0.70036710  0.41533175  1
  Pt  Pt9  1  0.25000000  0.20036710  0.08466825  1
  Pt  Pt10  1  0.75000000  0.79963290  0.91533175  1
  Pt  Pt11  1  0.75000000  0.29963290  0.58466825  1
