# generated using pymatgen
data_TmGeRh
_symmetry_space_group_name_H-M   'P 1'
_cell_length_a   4.25072036
_cell_length_b   6.80435269
_cell_length_c   7.48705795
_cell_angle_alpha   90.00000000
_cell_angle_beta   90.00000000
_cell_angle_gamma   90.00000000
_symmetry_Int_Tables_number   1
_chemical_formula_structural   TmGeRh
_chemical_formula_sum   'Tm4 Ge4 Rh4'
_cell_volume   216.55117577
_cell_formula_units_Z   4
loop_
 _symmetry_equiv_pos_site_id
 _symmetry_equiv_pos_as_xyz
  1  'x, y, z'
loop_
 _atom_site_type_symbol
 _atom_site_label
 _atom_site_symmetry_multiplicity
 _atom_site_fract_x
 _atom_site_fract_y
 _atom_site_fract_z
 _atom_site_occupancy
  Tm  Tm0  1  0.25000000  0.00396735  0.19645322  1
  Tm  Tm1  1  0.75000000  0.99603265  0.80354678  1
  Tm  Tm2  1  0.25000000  0.50396735  0.30354678  1
  Tm  Tm3  1  0.75000000  0.49603265  0.69645322  1
  Ge  Ge4  1  0.25000000  0.28668634  0.89204973  1
  Ge  Ge5  1  0.75000000  0.71331366  0.10795027  1
  Ge  Ge6  1  0.25000000  0.78668634  0.60795027  1
  Ge  Ge7  1  0.75000000  0.21331366  0.39204973  1
  Rh  Rh8  1  0.75000000  0.84458916  0.43447203  1
  Rh  Rh9  1  0.25000000  0.15541084  0.56552797  1
  Rh  Rh10  1  0.75000000  0.34458916  0.06552797  1
  Rh  Rh11  1  0.25000000  0.65541084  0.93447203  1
