# generated using pymatgen
data_Zr5P7Pd9
_symmetry_space_group_name_H-M   'P 1'
_cell_length_a   13.63646145
_cell_length_b   13.63646145
_cell_length_c   3.83168234
_cell_angle_alpha   90.00000000
_cell_angle_beta   90.00000000
_cell_angle_gamma   152.33494622
_symmetry_Int_Tables_number   1
_chemical_formula_structural   Zr5P7Pd9
_chemical_formula_sum   'Zr5 P7 Pd9'
_cell_volume   330.82122739
_cell_formula_units_Z   1
loop_
 _symmetry_equiv_pos_site_id
 _symmetry_equiv_pos_as_xyz
  1  'x, y, z'
loop_
 _atom_site_type_symbol
 _atom_site_label
 _atom_site_symmetry_multiplicity
 _atom_site_fract_x
 _atom_site_fract_y
 _atom_site_fract_z
 _atom_site_occupancy
  Zr  Zr0  1  0.91181592  0.45436237  0.50000000  1
  Zr  Zr1  1  0.45436237  0.91181592  0.50000000  1
  Zr  Zr2  1  0.47351808  0.47351808  0.00000000  1
  Zr  Zr3  1  0.17821896  0.00088213  0.00000000  1
  Zr  Zr4  1  0.00088213  0.17821896  0.00000000  1
  P  P5  1  0.74146224  0.02984807  0.50000000  1
  P  P6  1  0.87212500  0.87212500  -0.00000000  1
  P  P7  1  0.61073789  0.18278379  0.00000000  1
  P  P8  1  0.18278379  0.61073789  0.00000000  1
  P  P9  1  0.44284263  0.30640989  0.50000000  1
  P  P10  1  0.02984807  0.74146224  0.50000000  1
  P  P11  1  0.30640989  0.44284263  0.50000000  1
  Pd  Pd12  1  0.78029038  0.50124588  0.00000000  1
  Pd  Pd13  1  0.50124588  0.78029038  0.00000000  1
  Pd  Pd14  1  0.11759680  0.11759680  0.50000000  1
  Pd  Pd15  1  0.21019034  0.81646024  -0.00000000  1
  Pd  Pd16  1  0.13881046  0.45525699  0.50000000  1
  Pd  Pd17  1  0.45525699  0.13881046  0.50000000  1
  Pd  Pd18  1  0.68142471  0.79891623  0.50000000  1
  Pd  Pd19  1  0.79891623  0.68142471  0.50000000  1
  Pd  Pd20  1  0.81646024  0.21019034  -0.00000000  1
