# generated using pymatgen
data_CaVO3
_symmetry_space_group_name_H-M   'P 1'
_cell_length_a   5.31108468
_cell_length_b   5.35410723
_cell_length_c   7.55177219
_cell_angle_alpha   90.05243750
_cell_angle_beta   90.00000000
_cell_angle_gamma   90.00000000
_symmetry_Int_Tables_number   1
_chemical_formula_structural   CaVO3
_chemical_formula_sum   'Ca4 V4 O12'
_cell_volume   214.74298675
_cell_formula_units_Z   4
loop_
 _symmetry_equiv_pos_site_id
 _symmetry_equiv_pos_as_xyz
  1  'x, y, z'
loop_
 _atom_site_type_symbol
 _atom_site_label
 _atom_site_symmetry_multiplicity
 _atom_site_fract_x
 _atom_site_fract_y
 _atom_site_fract_z
 _atom_site_occupancy
  Ca  Ca0  1  0.99448591  0.03464724  0.74978708  1
  Ca  Ca1  1  0.49448591  0.46535276  0.25021292  1
  Ca  Ca2  1  0.50551409  0.53464724  0.74978708  1
  Ca  Ca3  1  0.00551409  0.96535276  0.25021292  1
  V  V4  1  0.50000000  0.00000000  0.50000000  1
  V  V5  1  -0.00000000  0.50000000  0.50000000  1
  V  V6  1  -0.00000000  0.50000000  -0.00000000  1
  V  V7  1  0.50000000  0.00000000  -0.00000000  1
  O  O8  1  0.93678797  0.51165966  0.25017256  1
  O  O9  1  0.43678797  0.98834034  0.74982744  1
  O  O10  1  0.56321203  0.01165966  0.25017256  1
  O  O11  1  0.06321203  0.48834034  0.74982744  1
  O  O12  1  0.71454028  0.28743109  0.96732967  1
  O  O13  1  0.21454028  0.21256891  0.03267033  1
  O  O14  1  0.78794825  0.78502267  0.53279492  1
  O  O15  1  0.28794825  0.71497733  0.46720508  1
  O  O16  1  0.71205175  0.28502267  0.53279492  1
  O  O17  1  0.21205175  0.21497733  0.46720508  1
  O  O18  1  0.28545972  0.71256891  0.03267033  1
  O  O19  1  0.78545972  0.78743109  0.96732967  1
