# generated using pymatgen
data_Ba(GeAs)2
_symmetry_space_group_name_H-M   'P 1'
_cell_length_a   7.87534532
_cell_length_b   7.87534532
_cell_length_c   8.72726781
_cell_angle_alpha   90.00000000
_cell_angle_beta   90.00000000
_cell_angle_gamma   90.00000000
_symmetry_Int_Tables_number   1
_chemical_formula_structural   Ba(GeAs)2
_chemical_formula_sum   'Ba4 Ge8 As8'
_cell_volume   541.27443460
_cell_formula_units_Z   4
loop_
 _symmetry_equiv_pos_site_id
 _symmetry_equiv_pos_as_xyz
  1  'x, y, z'
loop_
 _atom_site_type_symbol
 _atom_site_label
 _atom_site_symmetry_multiplicity
 _atom_site_fract_x
 _atom_site_fract_y
 _atom_site_fract_z
 _atom_site_occupancy
  Ba  Ba0  1  -0.00000000  0.50000000  0.52444970  1
  Ba  Ba1  1  0.50000000  0.00000000  0.02444970  1
  Ba  Ba2  1  -0.00000000  0.00000000  0.49906916  1
  Ba  Ba3  1  -0.00000000  0.00000000  0.99906916  1
  Ge  Ge4  1  0.16342791  0.50000000  0.10758609  1
  Ge  Ge5  1  0.50000000  0.83657209  0.60758609  1
  Ge  Ge6  1  0.83657209  0.50000000  0.10758609  1
  Ge  Ge7  1  0.50000000  0.16342791  0.60758609  1
  Ge  Ge8  1  0.33472340  0.50000000  0.86730542  1
  Ge  Ge9  1  0.50000000  0.33472340  0.36730542  1
  Ge  Ge10  1  0.50000000  0.66527660  0.36730542  1
  Ge  Ge11  1  0.66527660  0.50000000  0.86730542  1
  As  As12  1  0.76847078  0.24761694  0.25509928  1
  As  As13  1  0.23152922  0.75238306  0.25509928  1
  As  As14  1  0.24761694  0.23152922  0.75509928  1
  As  As15  1  0.75238306  0.76847078  0.75509928  1
  As  As16  1  0.23152922  0.24761694  0.25509928  1
  As  As17  1  0.75238306  0.23152922  0.75509928  1
  As  As18  1  0.24761694  0.76847078  0.75509928  1
  As  As19  1  0.76847078  0.75238306  0.25509928  1
