# generated using pymatgen
data_Ba5(RuO5)2
_symmetry_space_group_name_H-M   'P 1'
_cell_length_a   5.99653409
_cell_length_b   5.99653411
_cell_length_c   18.00403248
_cell_angle_alpha   89.99999746
_cell_angle_beta   89.99999171
_cell_angle_gamma   119.99998805
_symmetry_Int_Tables_number   1
_chemical_formula_structural   Ba5(RuO5)2
_chemical_formula_sum   'Ba10 Ru4 O20'
_cell_volume   560.66195452
_cell_formula_units_Z   2
loop_
 _symmetry_equiv_pos_site_id
 _symmetry_equiv_pos_as_xyz
  1  'x, y, z'
loop_
 _atom_site_type_symbol
 _atom_site_label
 _atom_site_symmetry_multiplicity
 _atom_site_fract_x
 _atom_site_fract_y
 _atom_site_fract_z
 _atom_site_occupancy
  Ba  Ba0  1  0.33333307  0.66666651  0.48479408  1
  Ba  Ba1  1  0.66666670  0.33333332  0.98479197  1
  Ba  Ba2  1  0.66666684  0.33333324  0.51520765  1
  Ba  Ba3  1  0.33333323  0.66666693  0.01520580  1
  Ba  Ba4  1  0.66666653  0.33333339  0.74999969  1
  Ba  Ba5  1  0.33333329  0.66666651  0.25000012  1
  Ba  Ba6  1  -0.00000012  0.00000009  0.36303845  1
  Ba  Ba7  1  0.00000017  -0.00000011  0.86304251  1
  Ba  Ba8  1  0.00000016  -0.00000017  0.63695723  1
  Ba  Ba9  1  -0.00000018  0.00000012  0.13696154  1
  Ru  Ru10  1  0.33333354  0.66666660  0.82693345  1
  Ru  Ru11  1  0.66666645  0.33333323  0.32693140  1
  Ru  Ru12  1  0.66666691  0.33333350  0.17306862  1
  Ru  Ru13  1  0.33333368  0.66666656  0.67306651  1
  O  O14  1  -0.00000003  0.00000004  0.49999709  1
  O  O15  1  0.00000001  -0.00000001  0.00000280  1
  O  O16  1  0.48780196  0.51219949  0.88298531  1
  O  O17  1  0.48780033  0.97560258  0.88298517  1
  O  O18  1  0.02439736  0.51219814  0.88298519  1
  O  O19  1  0.97560333  0.48780077  0.38298202  1
  O  O20  1  0.51219762  0.02439668  0.11701796  1
  O  O21  1  0.51219899  0.48780237  0.38298204  1
  O  O22  1  0.51219772  0.02439675  0.38298200  1
  O  O23  1  0.48780191  0.51219963  0.61701434  1
  O  O24  1  0.02439733  0.51219818  0.61701443  1
  O  O25  1  0.97560307  0.48780071  0.11701798  1
  O  O26  1  0.51219899  0.48780243  0.11701791  1
  O  O27  1  0.48780028  0.97560267  0.61701444  1
  O  O28  1  0.18728541  0.37457037  0.74999980  1
  O  O29  1  0.81271245  0.18728747  0.24999996  1
  O  O30  1  0.37457444  0.18728736  0.24999996  1
  O  O31  1  0.62542964  0.81271461  0.74999980  1
  O  O32  1  0.18728540  0.81271460  0.74999980  1
  O  O33  1  0.81271252  0.62542544  0.24999998  1
