# generated using pymatgen
data_Ta3(Se4Br3)2
_symmetry_space_group_name_H-M   'P 1'
_cell_length_a   7.42404644
_cell_length_b   11.39692421
_cell_length_c   12.95729857
_cell_angle_alpha   71.08707409
_cell_angle_beta   79.16379869
_cell_angle_gamma   82.68899604
_symmetry_Int_Tables_number   1
_chemical_formula_structural   Ta3(Se4Br3)2
_chemical_formula_sum   'Ta6 Se16 Br12'
_cell_volume   1016.05349509
_cell_formula_units_Z   2
loop_
 _symmetry_equiv_pos_site_id
 _symmetry_equiv_pos_as_xyz
  1  'x, y, z'
loop_
 _atom_site_type_symbol
 _atom_site_label
 _atom_site_symmetry_multiplicity
 _atom_site_fract_x
 _atom_site_fract_y
 _atom_site_fract_z
 _atom_site_occupancy
  Ta  Ta0  1  0.39557528  0.50091387  0.24425425  1
  Ta  Ta1  1  0.60442472  0.49908613  0.75574575  1
  Ta  Ta2  1  0.99839761  0.00145867  0.12313617  1
  Ta  Ta3  1  0.00160239  0.99854133  0.87686383  1
  Ta  Ta4  1  0.99920968  0.00081529  0.37663784  1
  Ta  Ta5  1  0.00079032  0.99918471  0.62336216  1
  Se  Se6  1  0.77987558  0.88524771  0.31390743  1
  Se  Se7  1  0.22012442  0.11475229  0.68609257  1
  Se  Se8  1  0.24995339  0.89569364  0.24529775  1
  Se  Se9  1  0.75004661  0.10430636  0.75470225  1
  Se  Se10  1  0.22161775  0.11607162  0.20222872  1
  Se  Se11  1  0.77838225  0.88392838  0.79777128  1
  Se  Se12  1  0.99225027  0.80304212  0.05877749  1
  Se  Se13  1  0.00774973  0.19695788  0.94122251  1
  Se  Se14  1  0.72998841  0.94380061  0.04445896  1
  Se  Se15  1  0.27001159  0.05619939  0.95554104  1
  Se  Se16  1  0.28493202  0.95427446  0.48154840  1
  Se  Se17  1  0.71506798  0.04572554  0.51845160  1
  Se  Se18  1  0.06584804  0.80423550  0.54814149  1
  Se  Se19  1  0.25918502  0.89566283  0.75971871  1
  Se  Se20  1  0.93415196  0.19576450  0.45185851  1
  Se  Se21  1  0.74081498  0.10433717  0.24028129  1
  Br  Br22  1  0.81857868  0.57506688  0.84702806  1
  Br  Br23  1  0.18142132  0.42493312  0.15297194  1
  Br  Br24  1  0.32583542  0.59619733  0.84781556  1
  Br  Br25  1  0.63978092  0.69960089  0.59671634  1
  Br  Br26  1  0.59578980  0.57935048  0.33769608  1
  Br  Br27  1  0.40421020  0.42064952  0.66230392  1
  Br  Br28  1  0.11976423  0.60311587  0.33890687  1
  Br  Br29  1  0.88023577  0.39688413  0.66109313  1
  Br  Br30  1  0.42254271  0.69420009  0.07706412  1
  Br  Br31  1  0.57745729  0.30579991  0.92293588  1
  Br  Br32  1  0.36021908  0.30039911  0.40328366  1
  Br  Br33  1  0.67416458  0.40380267  0.15218444  1
