# generated using pymatgen
data_LuGeRh
_symmetry_space_group_name_H-M   'P 1'
_cell_length_a   4.22364722
_cell_length_b   6.74326859
_cell_length_c   7.48031730
_cell_angle_alpha   90.00000000
_cell_angle_beta   90.00000000
_cell_angle_gamma   90.00000000
_symmetry_Int_Tables_number   1
_chemical_formula_structural   LuGeRh
_chemical_formula_sum   'Lu4 Ge4 Rh4'
_cell_volume   213.04832058
_cell_formula_units_Z   4
loop_
 _symmetry_equiv_pos_site_id
 _symmetry_equiv_pos_as_xyz
  1  'x, y, z'
loop_
 _atom_site_type_symbol
 _atom_site_label
 _atom_site_symmetry_multiplicity
 _atom_site_fract_x
 _atom_site_fract_y
 _atom_site_fract_z
 _atom_site_occupancy
  Lu  Lu0  1  0.25000000  0.00574478  0.19615887  1
  Lu  Lu1  1  0.75000000  0.99425522  0.80384113  1
  Lu  Lu2  1  0.25000000  0.50574478  0.30384113  1
  Lu  Lu3  1  0.75000000  0.49425522  0.69615887  1
  Ge  Ge4  1  0.25000000  0.28506888  0.89052448  1
  Ge  Ge5  1  0.75000000  0.71493112  0.10947552  1
  Ge  Ge6  1  0.25000000  0.78506888  0.60947552  1
  Ge  Ge7  1  0.75000000  0.21493112  0.39052448  1
  Rh  Rh8  1  0.75000000  0.84383383  0.43565641  1
  Rh  Rh9  1  0.25000000  0.15616617  0.56434359  1
  Rh  Rh10  1  0.75000000  0.34383383  0.06434359  1
  Rh  Rh11  1  0.25000000  0.65616617  0.93565641  1
