# generated using pymatgen
data_K5ThF9
_symmetry_space_group_name_H-M   'P 1'
_cell_length_a   7.49400440
_cell_length_b   7.49400440
_cell_length_c   10.51056803
_cell_angle_alpha   90.00000000
_cell_angle_beta   90.00000000
_cell_angle_gamma   116.70508142
_symmetry_Int_Tables_number   1
_chemical_formula_structural   K5ThF9
_chemical_formula_sum   'K10 Th2 F18'
_cell_volume   527.31088975
_cell_formula_units_Z   2
loop_
 _symmetry_equiv_pos_site_id
 _symmetry_equiv_pos_as_xyz
  1  'x, y, z'
loop_
 _atom_site_type_symbol
 _atom_site_label
 _atom_site_symmetry_multiplicity
 _atom_site_fract_x
 _atom_site_fract_y
 _atom_site_fract_z
 _atom_site_occupancy
  K  K0  1  0.14512588  0.35150783  0.90087641  1
  K  K1  1  0.85487412  0.64849217  0.40087641  1
  K  K2  1  0.64849217  0.85487412  0.90087641  1
  K  K3  1  0.35150783  0.14512588  0.40087641  1
  K  K4  1  0.11989400  0.39842425  0.55231765  1
  K  K5  1  0.88010600  0.60157575  0.05231765  1
  K  K6  1  0.60157575  0.88010600  0.55231765  1
  K  K7  1  0.39842425  0.11989400  0.05231765  1
  K  K8  1  0.57649774  0.42350226  0.71062697  1
  K  K9  1  0.42350226  0.57649774  0.21062697  1
  Th  Th10  1  0.16239435  0.83760565  0.75037313  1
  Th  Th11  1  0.83760565  0.16239435  0.25037313  1
  F  F12  1  0.49760833  0.05378552  0.77029894  1
  F  F13  1  0.50239167  0.94621448  0.27029894  1
  F  F14  1  0.94621448  0.50239167  0.77029894  1
  F  F15  1  0.05378552  0.49760833  0.27029894  1
  F  F16  1  0.21306146  0.15217644  0.67866085  1
  F  F17  1  0.78693854  0.84782356  0.17866085  1
  F  F18  1  0.84782356  0.78693854  0.67866085  1
  F  F19  1  0.15217644  0.21306146  0.17866085  1
  F  F20  1  0.51921486  0.48078514  0.96121095  1
  F  F21  1  0.48078514  0.51921486  0.46121095  1
  F  F22  1  0.24839512  0.75160488  0.95376064  1
  F  F23  1  0.75160488  0.24839512  0.45376064  1
  F  F24  1  0.95867062  0.04132938  0.41343227  1
  F  F25  1  0.04132938  0.95867062  0.91343227  1
  F  F26  1  0.79934825  0.20065175  0.03589020  1
  F  F27  1  0.20065175  0.79934825  0.53589020  1
  F  F28  1  0.64914772  0.35085228  0.22489615  1
  F  F29  1  0.35085228  0.64914772  0.72489615  1
