# generated using pymatgen
data_GdTiGe
_symmetry_space_group_name_H-M   'P 1'
_cell_length_a   4.04816110
_cell_length_b   4.04816110
_cell_length_c   7.85262443
_cell_angle_alpha   90.00000000
_cell_angle_beta   90.00000000
_cell_angle_gamma   90.00000000
_symmetry_Int_Tables_number   1
_chemical_formula_structural   GdTiGe
_chemical_formula_sum   'Gd2 Ti2 Ge2'
_cell_volume   128.68573322
_cell_formula_units_Z   2
loop_
 _symmetry_equiv_pos_site_id
 _symmetry_equiv_pos_as_xyz
  1  'x, y, z'
loop_
 _atom_site_type_symbol
 _atom_site_label
 _atom_site_symmetry_multiplicity
 _atom_site_fract_x
 _atom_site_fract_y
 _atom_site_fract_z
 _atom_site_occupancy
  Gd  Gd0  1  0.75000000  0.75000000  0.35569450  1
  Gd  Gd1  1  0.25000000  0.25000000  0.64430550  1
  Ti  Ti2  1  0.25000000  0.75000000  0.00000000  1
  Ti  Ti3  1  0.75000000  0.25000000  0.00000000  1
  Ge  Ge4  1  0.25000000  0.25000000  0.23083588  1
  Ge  Ge5  1  0.75000000  0.75000000  0.76916412  1
