# generated using pymatgen
data_Hg5(ClO2)2
_symmetry_space_group_name_H-M   'P 1'
_cell_length_a   8.87157232
_cell_length_b   8.87129609
_cell_length_c   8.87125138
_cell_angle_alpha   139.30534344
_cell_angle_beta   97.09190904
_cell_angle_gamma   96.79723577
_symmetry_Int_Tables_number   1
_chemical_formula_structural   Hg5(ClO2)2
_chemical_formula_sum   'Hg10 Cl4 O8'
_cell_volume   426.82732053
_cell_formula_units_Z   2
loop_
 _symmetry_equiv_pos_site_id
 _symmetry_equiv_pos_as_xyz
  1  'x, y, z'
loop_
 _atom_site_type_symbol
 _atom_site_label
 _atom_site_symmetry_multiplicity
 _atom_site_fract_x
 _atom_site_fract_y
 _atom_site_fract_z
 _atom_site_occupancy
  Hg  Hg0  1  0.85856349  0.78687547  0.64542728  1
  Hg  Hg1  1  0.64145553  0.28677044  0.92823487  1
  Hg  Hg2  1  0.35852446  0.71320947  0.07175728  1
  Hg  Hg3  1  0.14143980  0.21312358  0.35457495  1
  Hg  Hg4  1  0.59056219  0.25002302  0.34057973  1
  Hg  Hg5  1  0.90943385  0.24998748  0.65942971  1
  Hg  Hg6  1  0.40946173  0.75003156  0.65945708  1
  Hg  Hg7  1  0.09058527  0.75001364  0.34054489  1
  Hg  Hg8  1  0.25002219  0.25000646  0.99999473  1
  Hg  Hg9  1  0.75006244  0.75008630  0.00001134  1
  Cl  Cl10  1  0.39283292  0.22824233  0.62111432  1
  Cl  Cl11  1  0.10710643  0.72827517  0.83542016  1
  Cl  Cl12  1  0.89284746  0.27167501  0.16458064  1
  Cl  Cl13  1  0.60712189  0.77169996  0.37886674  1
  O  O14  1  0.17681453  0.52167542  0.05150661  1
  O  O15  1  0.32321130  0.37478870  0.34495962  1
  O  O16  1  0.47017370  0.12529355  0.94849822  1
  O  O17  1  0.02982525  0.97825474  0.65503758  1
  O  O18  1  0.97016204  0.02168542  0.34490100  1
  O  O19  1  0.52982692  0.87476258  0.05156616  1
  O  O20  1  0.82318232  0.47826255  0.94843486  1
  O  O21  1  0.67678629  0.62525613  0.65510322  1
