# generated using pymatgen
data_K3Na(SO4)2
_symmetry_space_group_name_H-M   'P 1'
_cell_length_a   5.64485839
_cell_length_b   5.64485839
_cell_length_c   7.27049782
_cell_angle_alpha   90.00000000
_cell_angle_beta   90.00000000
_cell_angle_gamma   119.99999857
_symmetry_Int_Tables_number   1
_chemical_formula_structural   K3Na(SO4)2
_chemical_formula_sum   'K3 Na1 S2 O8'
_cell_volume   200.63231702
_cell_formula_units_Z   1
loop_
 _symmetry_equiv_pos_site_id
 _symmetry_equiv_pos_as_xyz
  1  'x, y, z'
loop_
 _atom_site_type_symbol
 _atom_site_label
 _atom_site_symmetry_multiplicity
 _atom_site_fract_x
 _atom_site_fract_y
 _atom_site_fract_z
 _atom_site_occupancy
  K  K0  1  0.33333300  0.66666700  0.17530311  1
  K  K1  1  0.00000000  0.00000000  0.50000000  1
  K  K2  1  0.66666700  0.33333300  0.82469689  1
  Na  Na3  1  0.00000000  0.00000000  0.00000000  1
  S  S4  1  0.66666700  0.33333300  0.26800406  1
  S  S5  1  0.33333300  0.66666700  0.73199594  1
  O  O6  1  0.19102595  0.80897405  0.80403693  1
  O  O7  1  0.19102595  0.38205190  0.80403693  1
  O  O8  1  0.61794810  0.80897405  0.80403693  1
  O  O9  1  0.38205190  0.19102595  0.19596307  1
  O  O10  1  0.80897405  0.61794810  0.19596307  1
  O  O11  1  0.80897405  0.19102595  0.19596307  1
  O  O12  1  0.66666700  0.33333300  0.46851887  1
  O  O13  1  0.33333300  0.66666700  0.53148113  1
