# generated using pymatgen
data_SmGePt
_symmetry_space_group_name_H-M   'P 1'
_cell_length_a   4.40849265
_cell_length_b   7.19846966
_cell_length_c   7.62910695
_cell_angle_alpha   90.00034107
_cell_angle_beta   89.99999875
_cell_angle_gamma   89.99999756
_symmetry_Int_Tables_number   1
_chemical_formula_structural   SmGePt
_chemical_formula_sum   'Sm4 Ge4 Pt4'
_cell_volume   242.10513607
_cell_formula_units_Z   4
loop_
 _symmetry_equiv_pos_site_id
 _symmetry_equiv_pos_as_xyz
  1  'x, y, z'
loop_
 _atom_site_type_symbol
 _atom_site_label
 _atom_site_symmetry_multiplicity
 _atom_site_fract_x
 _atom_site_fract_y
 _atom_site_fract_z
 _atom_site_occupancy
  Sm  Sm0  1  0.74999995  0.99612323  0.29569376  1
  Sm  Sm1  1  0.25000006  0.00387424  0.70431129  1
  Sm  Sm2  1  0.25000000  0.50387098  0.79567976  1
  Sm  Sm3  1  0.74999996  0.49612600  0.20432246  1
  Ge  Ge4  1  0.75000005  0.81177741  0.91295004  1
  Ge  Ge5  1  0.24999995  0.68822075  0.41294945  1
  Ge  Ge6  1  0.24999996  0.18821707  0.08705152  1
  Ge  Ge7  1  0.75000006  0.31177903  0.58705631  1
  Pt  Pt8  1  0.75000003  0.20345181  0.91595085  1
  Pt  Pt9  1  0.25000000  0.29655817  0.41595356  1
  Pt  Pt10  1  0.24999997  0.79655288  0.08403842  1
  Pt  Pt11  1  0.75000000  0.70344644  0.58404257  1
