# generated using pymatgen
data_Na3H5(CO4)2
_symmetry_space_group_name_H-M   'P 1'
_cell_length_a   3.43076728
_cell_length_b   10.26710589
_cell_length_c   10.20783618
_cell_angle_alpha   106.77162447
_cell_angle_beta   80.32578490
_cell_angle_gamma   90.00000000
_symmetry_Int_Tables_number   1
_chemical_formula_structural   Na3H5(CO4)2
_chemical_formula_sum   'Na6 H10 C4 O16'
_cell_volume   338.92258592
_cell_formula_units_Z   2
loop_
 _symmetry_equiv_pos_site_id
 _symmetry_equiv_pos_as_xyz
  1  'x, y, z'
loop_
 _atom_site_type_symbol
 _atom_site_label
 _atom_site_symmetry_multiplicity
 _atom_site_fract_x
 _atom_site_fract_y
 _atom_site_fract_z
 _atom_site_occupancy
  Na  Na0  1  0.24951275  0.75000000  0.00000000  1
  Na  Na1  1  0.74795569  0.25000000  0.00000000  1
  Na  Na2  1  0.69503462  0.92950093  0.30650897  1
  Na  Na3  1  0.00154260  0.57049907  0.69349103  1
  Na  Na4  1  0.30230825  0.07314558  0.69420950  1
  Na  Na5  1  0.99651775  0.42685442  0.30579050  1
  H  H6  1  0.22209518  0.75913351  0.38526212  1
  H  H7  1  0.60735730  0.74086649  0.61473788  1
  H  H8  1  0.77273498  0.24153851  0.61552879  1
  H  H9  1  0.38826376  0.25846149  0.38447121  1
  H  H10  1  0.00358655  0.86596890  0.52302549  1
  H  H11  1  0.52661204  0.63403110  0.47697451  1
  H  H12  1  0.99201827  0.13510251  0.47749923  1
  H  H13  1  0.46951751  0.36489749  0.52250077  1
  H  H14  1  0.99445899  0.50029292  0.00247262  1
  H  H15  1  0.99693161  0.99970708  0.99752738  1
  C  C16  1  0.63599367  0.60454899  0.18725242  1
  C  C17  1  0.82324609  0.89545101  0.81274758  1
  C  C18  1  0.35920304  0.39636513  0.81353893  1
  C  C19  1  0.17274097  0.10363487  0.18646107  1
  O  O20  1  0.66977919  0.71059718  0.14710153  1
  O  O21  1  0.81688072  0.78940282  0.85289847  1
  O  O22  1  0.32695138  0.29032463  0.85422158  1
  O  O23  1  0.18117296  0.20967537  0.14577842  1
  O  O24  1  0.43442904  0.60214885  0.30461324  1
  O  O25  1  0.73904228  0.89785115  0.69538676  1
  O  O26  1  0.55962124  0.39712418  0.69508281  1
  O  O27  1  0.25470404  0.10287582  0.30491719  1
  O  O28  1  0.13305306  0.85640020  0.42769832  1
  O  O29  1  0.56075138  0.64359980  0.57230168  1
  O  O30  1  0.86404691  0.14431887  0.57291380  1
  O  O31  1  0.43696171  0.35568113  0.42708620  1
  O  O32  1  0.81654407  0.48761039  0.10732630  1
  O  O33  1  0.92387036  0.01238961  0.89267370  1
  O  O34  1  0.18086799  0.51307785  0.89282408  1
  O  O35  1  0.07369207  0.98692215  0.10717592  1
