# generated using pymatgen
data_Nd2Tl
_symmetry_space_group_name_H-M   'P 1'
_cell_length_a   5.56792251
_cell_length_b   5.56792225
_cell_length_c   6.91424172
_cell_angle_alpha   90.00000000
_cell_angle_beta   90.00000000
_cell_angle_gamma   119.99997215
_symmetry_Int_Tables_number   1
_chemical_formula_structural   Nd2Tl
_chemical_formula_sum   'Nd4 Tl2'
_cell_volume   185.63576698
_cell_formula_units_Z   2
loop_
 _symmetry_equiv_pos_site_id
 _symmetry_equiv_pos_as_xyz
  1  'x, y, z'
loop_
 _atom_site_type_symbol
 _atom_site_label
 _atom_site_symmetry_multiplicity
 _atom_site_fract_x
 _atom_site_fract_y
 _atom_site_fract_z
 _atom_site_occupancy
  Nd  Nd0  1  -0.00000000  -0.00000000  -0.00000000  1
  Nd  Nd1  1  -0.00000000  -0.00000000  0.50000000  1
  Nd  Nd2  1  0.33333300  0.66666700  0.74998571  1
  Nd  Nd3  1  0.66666700  0.33333300  0.25001429  1
  Tl  Tl4  1  0.33333300  0.66666700  0.25001605  1
  Tl  Tl5  1  0.66666700  0.33333300  0.74998395  1
