# generated using pymatgen
data_PrCoO3
_symmetry_space_group_name_H-M   'P 1'
_cell_length_a   5.40230677
_cell_length_b   5.34896231
_cell_length_c   7.59490712
_cell_angle_alpha   90.00000000
_cell_angle_beta   90.00000000
_cell_angle_gamma   90.00000000
_symmetry_Int_Tables_number   1
_chemical_formula_structural   PrCoO3
_chemical_formula_sum   'Pr4 Co4 O12'
_cell_volume   219.46802067
_cell_formula_units_Z   4
loop_
 _symmetry_equiv_pos_site_id
 _symmetry_equiv_pos_as_xyz
  1  'x, y, z'
loop_
 _atom_site_type_symbol
 _atom_site_label
 _atom_site_symmetry_multiplicity
 _atom_site_fract_x
 _atom_site_fract_y
 _atom_site_fract_z
 _atom_site_occupancy
  Pr  Pr0  1  0.00537148  0.97288180  0.75000000  1
  Pr  Pr1  1  0.49462852  0.47288180  0.75000000  1
  Pr  Pr2  1  0.50537148  0.52711820  0.25000000  1
  Pr  Pr3  1  0.99462852  0.02711820  0.25000000  1
  Co  Co4  1  0.50000000  0.00000000  0.50000000  1
  Co  Co5  1  -0.00000000  0.50000000  0.00000000  1
  Co  Co6  1  -0.00000000  0.50000000  0.50000000  1
  Co  Co7  1  0.50000000  0.00000000  0.00000000  1
  O  O8  1  0.72326272  0.27638975  0.46370545  1
  O  O9  1  0.77673728  0.77638975  0.03629455  1
  O  O10  1  0.22326272  0.22361025  0.53629455  1
  O  O11  1  0.27673728  0.72361025  0.96370545  1
  O  O12  1  0.27673728  0.72361025  0.53629455  1
  O  O13  1  0.22326272  0.22361025  0.96370545  1
  O  O14  1  0.77673728  0.77638975  0.46370545  1
  O  O15  1  0.72326272  0.27638975  0.03629455  1
  O  O16  1  0.06640753  0.49242651  0.25000000  1
  O  O17  1  0.43359247  0.99242651  0.25000000  1
  O  O18  1  0.56640753  0.00757349  0.75000000  1
  O  O19  1  0.93359247  0.50757349  0.75000000  1
