# generated using pymatgen
data_Ca2Cu6P5
_symmetry_space_group_name_H-M   'P 1'
_cell_length_a   3.99181369
_cell_length_b   3.99181437
_cell_length_c   12.52685511
_cell_angle_alpha   99.16802437
_cell_angle_beta   99.16802285
_cell_angle_gamma   89.99999443
_symmetry_Int_Tables_number   1
_chemical_formula_structural   Ca2Cu6P5
_chemical_formula_sum   'Ca2 Cu6 P5'
_cell_volume   194.47683028
_cell_formula_units_Z   1
loop_
 _symmetry_equiv_pos_site_id
 _symmetry_equiv_pos_as_xyz
  1  'x, y, z'
loop_
 _atom_site_type_symbol
 _atom_site_label
 _atom_site_symmetry_multiplicity
 _atom_site_fract_x
 _atom_site_fract_y
 _atom_site_fract_z
 _atom_site_occupancy
  Ca  Ca0  1  0.64898221  0.64898221  0.29796443  1
  Ca  Ca1  1  0.35101879  0.35101879  0.70203557  1
  Cu  Cu2  1  0.25000000  0.75000000  0.50000000  1
  Cu  Cu3  1  0.44664370  0.94664370  0.89328640  1
  Cu  Cu4  1  0.94664370  0.44664370  0.89328640  1
  Cu  Cu5  1  0.55335630  0.05335630  0.10671360  1
  Cu  Cu6  1  0.05335630  0.55335630  0.10671360  1
  Cu  Cu7  1  0.75000000  0.25000000  0.50000000  1
  P  P8  1  0.80238450  0.80238450  0.60476799  1
  P  P9  1  0.50000000  0.50000000  0.00000000  1
  P  P10  1  0.19761550  0.19761550  0.39523101  1
  P  P11  1  0.89446199  0.89446199  0.78892399  1
  P  P12  1  0.10553801  0.10553801  0.21107601  1
