# generated using pymatgen
data_Ge3Ru2
_symmetry_space_group_name_H-M   'P 1'
_cell_length_a   5.72816865
_cell_length_b   9.25283982
_cell_length_c   11.46508853
_cell_angle_alpha   90.00000000
_cell_angle_beta   90.00000000
_cell_angle_gamma   90.00000000
_symmetry_Int_Tables_number   1
_chemical_formula_structural   Ge3Ru2
_chemical_formula_sum   'Ge24 Ru16'
_cell_volume   607.67063858
_cell_formula_units_Z   8
loop_
 _symmetry_equiv_pos_site_id
 _symmetry_equiv_pos_as_xyz
  1  'x, y, z'
loop_
 _atom_site_type_symbol
 _atom_site_label
 _atom_site_symmetry_multiplicity
 _atom_site_fract_x
 _atom_site_fract_y
 _atom_site_fract_z
 _atom_site_occupancy
  Ge  Ge0  1  0.59806776  0.10200165  0.63367669  1
  Ge  Ge1  1  0.09806776  0.39799835  0.86632331  1
  Ge  Ge2  1  0.90193224  0.10200165  0.36632331  1
  Ge  Ge3  1  0.40193224  0.39799835  0.13367669  1
  Ge  Ge4  1  0.40193224  0.89799835  0.36632331  1
  Ge  Ge5  1  0.90193224  0.60200165  0.13367669  1
  Ge  Ge6  1  0.09806776  0.89799835  0.63367669  1
  Ge  Ge7  1  0.59806776  0.60200165  0.86632331  1
  Ge  Ge8  1  0.91304199  0.06612180  0.82451363  1
  Ge  Ge9  1  0.41304199  0.43387820  0.67548637  1
  Ge  Ge10  1  0.58695801  0.06612180  0.17548637  1
  Ge  Ge11  1  0.08695801  0.43387820  0.32451363  1
  Ge  Ge12  1  0.08695801  0.93387820  0.17548637  1
  Ge  Ge13  1  0.58695801  0.56612180  0.32451363  1
  Ge  Ge14  1  0.41304199  0.93387820  0.82451363  1
  Ge  Ge15  1  0.91304199  0.56612180  0.67548637  1
  Ge  Ge16  1  0.54246347  0.71488343  0.57414450  1
  Ge  Ge17  1  0.04246347  0.78511657  0.92585550  1
  Ge  Ge18  1  0.95753653  0.71488343  0.42585550  1
  Ge  Ge19  1  0.45753653  0.78511657  0.07414450  1
  Ge  Ge20  1  0.45753653  0.28511657  0.42585550  1
  Ge  Ge21  1  0.95753653  0.21488343  0.07414450  1
  Ge  Ge22  1  0.04246347  0.28511657  0.57414450  1
  Ge  Ge23  1  0.54246347  0.21488343  0.92585550  1
  Ru  Ru24  1  0.75000000  0.92580924  0.50000000  1
  Ru  Ru25  1  0.25000000  0.57419076  0.00000000  1
  Ru  Ru26  1  0.25000000  0.07419076  0.50000000  1
  Ru  Ru27  1  0.75000000  0.42580924  0.00000000  1
  Ru  Ru28  1  0.75000000  0.45716249  0.50000000  1
  Ru  Ru29  1  0.25000000  0.04283751  0.00000000  1
  Ru  Ru30  1  0.25000000  0.54283751  0.50000000  1
  Ru  Ru31  1  0.75000000  0.95716249  0.00000000  1
  Ru  Ru32  1  0.75943274  0.31233878  0.74609989  1
  Ru  Ru33  1  0.25943274  0.18766122  0.75390011  1
  Ru  Ru34  1  0.74056726  0.31233878  0.25390011  1
  Ru  Ru35  1  0.24056726  0.18766122  0.24609989  1
  Ru  Ru36  1  0.24056726  0.68766122  0.25390011  1
  Ru  Ru37  1  0.74056726  0.81233878  0.24609989  1
  Ru  Ru38  1  0.25943274  0.68766122  0.74609989  1
  Ru  Ru39  1  0.75943274  0.81233878  0.75390011  1
