# generated using pymatgen
data_Bi2Pd3S2
_symmetry_space_group_name_H-M   'P 1'
_cell_length_a   7.26469259
_cell_length_b   7.26469217
_cell_length_c   7.26469271
_cell_angle_alpha   109.47123368
_cell_angle_beta   109.47123254
_cell_angle_gamma   109.47120180
_symmetry_Int_Tables_number   1
_chemical_formula_structural   Bi2Pd3S2
_chemical_formula_sum   'Bi4 Pd6 S4'
_cell_volume   295.14116218
_cell_formula_units_Z   2
loop_
 _symmetry_equiv_pos_site_id
 _symmetry_equiv_pos_as_xyz
  1  'x, y, z'
loop_
 _atom_site_type_symbol
 _atom_site_label
 _atom_site_symmetry_multiplicity
 _atom_site_fract_x
 _atom_site_fract_y
 _atom_site_fract_z
 _atom_site_occupancy
  Bi  Bi0  1  0.49124196  0.50000000  -0.00000000  1
  Bi  Bi1  1  0.50000000  -0.00000000  0.49124196  1
  Bi  Bi2  1  0.00000000  0.49124196  0.50000000  1
  Bi  Bi3  1  0.00875804  0.00875804  0.00875804  1
  Pd  Pd4  1  0.25000000  0.53088559  0.28088559  1
  Pd  Pd5  1  0.96911441  0.21911441  0.75000000  1
  Pd  Pd6  1  0.21911441  0.75000000  0.96911441  1
  Pd  Pd7  1  0.53088559  0.28088559  0.25000000  1
  Pd  Pd8  1  0.28088559  0.25000000  0.53088559  1
  Pd  Pd9  1  0.75000000  0.96911441  0.21911441  1
  S  S10  1  0.94567945  0.50000000  0.00000000  1
  S  S11  1  0.55432055  0.55432055  0.55432055  1
  S  S12  1  0.50000000  0.00000000  0.94567945  1
  S  S13  1  -0.00000000  0.94567945  0.50000000  1
