# generated using pymatgen
data_Tl4Te3Pb
_symmetry_space_group_name_H-M   'P 1'
_cell_length_a   9.17981636
_cell_length_b   9.17981636
_cell_length_c   9.17981636
_cell_angle_alpha   121.52478124
_cell_angle_beta   121.52478124
_cell_angle_gamma   87.37868669
_symmetry_Int_Tables_number   1
_chemical_formula_structural   Tl4Te3Pb
_chemical_formula_sum   'Tl8 Te6 Pb2'
_cell_volume   533.78565733
_cell_formula_units_Z   2
loop_
 _symmetry_equiv_pos_site_id
 _symmetry_equiv_pos_as_xyz
  1  'x, y, z'
loop_
 _atom_site_type_symbol
 _atom_site_label
 _atom_site_symmetry_multiplicity
 _atom_site_fract_x
 _atom_site_fract_y
 _atom_site_fract_z
 _atom_site_occupancy
  Tl  Tl0  1  0.01280425  0.51280425  0.20734601  1
  Tl  Tl1  1  0.69454076  0.19454076  0.20734601  1
  Tl  Tl2  1  0.30545924  0.80545924  0.79265399  1
  Tl  Tl3  1  0.80545924  0.01280425  0.50000000  1
  Tl  Tl4  1  0.51280425  0.30545924  0.50000000  1
  Tl  Tl5  1  0.19454076  0.98719575  0.50000000  1
  Tl  Tl6  1  0.48719575  0.69454076  0.50000000  1
  Tl  Tl7  1  0.98719575  0.48719575  0.79265399  1
  Te  Te8  1  0.16491387  0.33508613  0.50000000  1
  Te  Te9  1  0.66491387  0.16491387  0.82982874  1
  Te  Te10  1  0.75000000  0.75000000  -0.00000000  1
  Te  Te11  1  0.25000000  0.25000000  -0.00000000  1
  Te  Te12  1  0.33508613  0.83508613  0.17017126  1
  Te  Te13  1  0.83508613  0.66491387  0.50000000  1
  Pb  Pb14  1  -0.00000000  0.00000000  -0.00000000  1
  Pb  Pb15  1  0.50000000  0.50000000  -0.00000000  1
