# generated using pymatgen
data_GdAlPd
_symmetry_space_group_name_H-M   'P 1'
_cell_length_a   7.08852041
_cell_length_b   7.08852377
_cell_length_c   4.17581356
_cell_angle_alpha   90.00000000
_cell_angle_beta   90.00000000
_cell_angle_gamma   120.00001048
_symmetry_Int_Tables_number   1
_chemical_formula_structural   GdAlPd
_chemical_formula_sum   'Gd3 Al3 Pd3'
_cell_volume   181.71177894
_cell_formula_units_Z   3
loop_
 _symmetry_equiv_pos_site_id
 _symmetry_equiv_pos_as_xyz
  1  'x, y, z'
loop_
 _atom_site_type_symbol
 _atom_site_label
 _atom_site_symmetry_multiplicity
 _atom_site_fract_x
 _atom_site_fract_y
 _atom_site_fract_z
 _atom_site_occupancy
  Gd  Gd0  1  0.00000000  0.58190002  0.50000000  1
  Gd  Gd1  1  0.41809998  0.41809998  0.50000000  1
  Gd  Gd2  1  0.58190002  1.00000000  0.50000000  1
  Al  Al3  1  0.76880542  0.76880642  0.00000000  1
  Al  Al4  1  0.23119458  0.00000100  -0.00000000  1
  Al  Al5  1  1.00000000  0.23119358  -0.00000000  1
  Pd  Pd6  1  0.33333400  0.66666700  0.00000000  1
  Pd  Pd7  1  0.66666600  0.33333200  0.00000000  1
  Pd  Pd8  1  -0.00000000  -0.00000000  0.50000000  1
