# generated using pymatgen
data_Zr6CI12
_symmetry_space_group_name_H-M   'P 1'
_cell_length_a   9.22082430
_cell_length_b   9.22254842
_cell_length_c   9.22124073
_cell_angle_alpha   106.94182383
_cell_angle_beta   106.94409458
_cell_angle_gamma   106.94142376
_symmetry_Int_Tables_number   1
_chemical_formula_structural   Zr6CI12
_chemical_formula_sum   'Zr6 C1 I12'
_cell_volume   654.08660429
_cell_formula_units_Z   1
loop_
 _symmetry_equiv_pos_site_id
 _symmetry_equiv_pos_as_xyz
  1  'x, y, z'
loop_
 _atom_site_type_symbol
 _atom_site_label
 _atom_site_symmetry_multiplicity
 _atom_site_fract_x
 _atom_site_fract_y
 _atom_site_fract_z
 _atom_site_occupancy
  Zr  Zr0  1  0.91375678  0.97437949  0.73400629  1
  Zr  Zr1  1  0.73394448  0.91381150  0.97441883  1
  Zr  Zr2  1  0.97441804  0.73402716  0.91375350  1
  Zr  Zr3  1  0.08620908  0.02548655  0.26598911  1
  Zr  Zr4  1  0.26599665  0.08615917  0.02554111  1
  Zr  Zr5  1  0.02562910  0.26597060  0.08626894  1
  C  C6  1  -0.00004223  -0.00002227  0.00001045  1
  I  I7  1  0.44127924  0.14227420  0.36760115  1
  I  I8  1  0.14243251  0.36755855  0.44127226  1
  I  I9  1  0.63235543  0.55885955  0.85777080  1
  I  I10  1  0.55869166  0.85791610  0.63234432  1
  I  I11  1  0.85777586  0.63234097  0.55872680  1
  I  I12  1  0.36768590  0.44121011  0.14238428  1
  I  I13  1  0.77410192  0.92182130  0.30773100  1
  I  I14  1  0.30765409  0.77412875  0.92167184  1
  I  I15  1  0.92171691  0.30764320  0.77416182  1
  I  I16  1  0.22583637  0.07827645  0.69232985  1
  I  I17  1  0.69228893  0.22583666  0.07817145  1
  I  I18  1  0.07827028  0.69232296  0.22584621  1
