# generated using pymatgen
data_TmSb
_symmetry_space_group_name_H-M   'P 1'
_cell_length_a   4.32705693
_cell_length_b   4.32705782
_cell_length_c   4.32705563
_cell_angle_alpha   60.00001668
_cell_angle_beta   60.00000988
_cell_angle_gamma   60.00000884
_symmetry_Int_Tables_number   1
_chemical_formula_structural   TmSb
_chemical_formula_sum   'Tm1 Sb1'
_cell_volume   57.28790031
_cell_formula_units_Z   1
loop_
 _symmetry_equiv_pos_site_id
 _symmetry_equiv_pos_as_xyz
  1  'x, y, z'
loop_
 _atom_site_type_symbol
 _atom_site_label
 _atom_site_symmetry_multiplicity
 _atom_site_fract_x
 _atom_site_fract_y
 _atom_site_fract_z
 _atom_site_occupancy
  Tm  Tm0  1  0.50000000  0.50000000  0.50000000  1
  Sb  Sb1  1  0.00000000  -0.00000000  0.00000000  1
