# generated using pymatgen
data_S2O5F2
_symmetry_space_group_name_H-M   'P 1'
_cell_length_a   7.49420679
_cell_length_b   7.49420679
_cell_length_c   9.24949861
_cell_angle_alpha   90.00000000
_cell_angle_beta   90.00000000
_cell_angle_gamma   90.00000000
_symmetry_Int_Tables_number   1
_chemical_formula_structural   S2O5F2
_chemical_formula_sum   'S8 O20 F8'
_cell_volume   519.48084292
_cell_formula_units_Z   4
loop_
 _symmetry_equiv_pos_site_id
 _symmetry_equiv_pos_as_xyz
  1  'x, y, z'
loop_
 _atom_site_type_symbol
 _atom_site_label
 _atom_site_symmetry_multiplicity
 _atom_site_fract_x
 _atom_site_fract_y
 _atom_site_fract_z
 _atom_site_occupancy
  S  S0  1  0.57840163  0.17387936  0.63576761  1
  S  S1  1  0.42159837  0.82612064  0.63576761  1
  S  S2  1  0.32612064  0.92159837  0.13576761  1
  S  S3  1  0.82612064  0.57840163  0.36423239  1
  S  S4  1  0.17387936  0.42159837  0.36423239  1
  S  S5  1  0.92159837  0.67387936  0.86423239  1
  S  S6  1  0.07840163  0.32612064  0.86423239  1
  S  S7  1  0.67387936  0.07840163  0.13576761  1
  O  O8  1  0.52487326  0.79078431  0.51243742  1
  O  O9  1  0.38575749  0.70459844  0.74702400  1
  O  O10  1  0.20459844  0.88575749  0.24702400  1
  O  O11  1  0.70459844  0.61424251  0.25297600  1
  O  O12  1  0.29540156  0.38575749  0.25297600  1
  O  O13  1  0.88575749  0.79540156  0.75297600  1
  O  O14  1  0.11424251  0.20459844  0.75297600  1
  O  O15  1  0.79540156  0.11424251  0.24702400  1
  O  O16  1  0.50000000  0.00000000  0.21834770  1
  O  O17  1  -0.00000000  0.50000000  0.78165230  1
  O  O18  1  -0.00000000  0.50000000  0.28165230  1
  O  O19  1  0.50000000  0.00000000  0.71834770  1
  O  O20  1  0.70921569  0.97512674  0.01243742  1
  O  O21  1  0.47512674  0.20921569  0.51243742  1
  O  O22  1  0.02487326  0.70921569  0.98756258  1
  O  O23  1  0.20921569  0.52487326  0.48756258  1
  O  O24  1  0.79078431  0.47512674  0.48756258  1
  O  O25  1  0.29078431  0.02487326  0.01243742  1
  O  O26  1  0.97512674  0.29078431  0.98756258  1
  O  O27  1  0.61424251  0.29540156  0.74702400  1
  F  F28  1  0.59343382  0.25759447  0.08459867  1
  F  F29  1  0.25759447  0.40656618  0.91540133  1
  F  F30  1  0.74240553  0.59343382  0.91540133  1
  F  F31  1  0.09343382  0.24240553  0.41540133  1
  F  F32  1  0.90656618  0.75759447  0.41540133  1
  F  F33  1  0.40656618  0.74240553  0.08459867  1
  F  F34  1  0.24240553  0.90656618  0.58459867  1
  F  F35  1  0.75759447  0.09343382  0.58459867  1
