# generated using pymatgen
data_HoGeRh
_symmetry_space_group_name_H-M   'P 1'
_cell_length_a   4.28338852
_cell_length_b   6.87828637
_cell_length_c   7.49827563
_cell_angle_alpha   90.00000000
_cell_angle_beta   90.00000000
_cell_angle_gamma   90.00000000
_symmetry_Int_Tables_number   1
_chemical_formula_structural   HoGeRh
_chemical_formula_sum   'Ho4 Ge4 Rh4'
_cell_volume   220.91699253
_cell_formula_units_Z   4
loop_
 _symmetry_equiv_pos_site_id
 _symmetry_equiv_pos_as_xyz
  1  'x, y, z'
loop_
 _atom_site_type_symbol
 _atom_site_label
 _atom_site_symmetry_multiplicity
 _atom_site_fract_x
 _atom_site_fract_y
 _atom_site_fract_z
 _atom_site_occupancy
  Ho  Ho0  1  0.25000000  0.50173988  0.30405853  1
  Ho  Ho1  1  0.75000000  0.49826012  0.69594147  1
  Ho  Ho2  1  0.25000000  0.00173988  0.19594147  1
  Ho  Ho3  1  0.75000000  0.99826012  0.80405853  1
  Ge  Ge4  1  0.25000000  0.28889513  0.89420663  1
  Ge  Ge5  1  0.75000000  0.71110487  0.10579337  1
  Ge  Ge6  1  0.25000000  0.78889513  0.60579337  1
  Ge  Ge7  1  0.75000000  0.21110487  0.39420663  1
  Rh  Rh8  1  0.75000000  0.84495742  0.43299423  1
  Rh  Rh9  1  0.25000000  0.15504258  0.56700577  1
  Rh  Rh10  1  0.75000000  0.34495742  0.06700577  1
  Rh  Rh11  1  0.25000000  0.65504258  0.93299423  1
