# generated using pymatgen
data_CeSnPt
_symmetry_space_group_name_H-M   'P 1'
_cell_length_a   4.66504170
_cell_length_b   7.48681279
_cell_length_c   8.03037866
_cell_angle_alpha   90.00000000
_cell_angle_beta   90.00000000
_cell_angle_gamma   90.00000000
_symmetry_Int_Tables_number   1
_chemical_formula_structural   CeSnPt
_chemical_formula_sum   'Ce4 Sn4 Pt4'
_cell_volume   280.47136493
_cell_formula_units_Z   4
loop_
 _symmetry_equiv_pos_site_id
 _symmetry_equiv_pos_as_xyz
  1  'x, y, z'
loop_
 _atom_site_type_symbol
 _atom_site_label
 _atom_site_symmetry_multiplicity
 _atom_site_fract_x
 _atom_site_fract_y
 _atom_site_fract_z
 _atom_site_occupancy
  Ce  Ce0  1  0.75000000  0.48636608  0.19714588  1
  Ce  Ce1  1  0.25000000  0.01363392  0.69714588  1
  Ce  Ce2  1  0.75000000  0.98636608  0.30285412  1
  Ce  Ce3  1  0.25000000  0.51363392  0.80285412  1
  Sn  Sn4  1  0.25000000  0.67583178  0.41587511  1
  Sn  Sn5  1  0.25000000  0.17583178  0.08412489  1
  Sn  Sn6  1  0.75000000  0.32416822  0.58412489  1
  Sn  Sn7  1  0.75000000  0.82416822  0.91587511  1
  Pt  Pt8  1  0.25000000  0.78562289  0.08870106  1
  Pt  Pt9  1  0.25000000  0.28562289  0.41129894  1
  Pt  Pt10  1  0.75000000  0.71437711  0.58870106  1
  Pt  Pt11  1  0.75000000  0.21437711  0.91129894  1
