# generated using pymatgen
data_Na2Pd3O4
_symmetry_space_group_name_H-M   'P 1'
_cell_length_a   3.05487304
_cell_length_b   5.46513671
_cell_length_c   7.26884767
_cell_angle_alpha   112.08172180
_cell_angle_beta   102.13023621
_cell_angle_gamma   90.00000335
_symmetry_Int_Tables_number   1
_chemical_formula_structural   Na2Pd3O4
_chemical_formula_sum   'Na2 Pd3 O4'
_cell_volume   109.52441306
_cell_formula_units_Z   1
loop_
 _symmetry_equiv_pos_site_id
 _symmetry_equiv_pos_as_xyz
  1  'x, y, z'
loop_
 _atom_site_type_symbol
 _atom_site_label
 _atom_site_symmetry_multiplicity
 _atom_site_fract_x
 _atom_site_fract_y
 _atom_site_fract_z
 _atom_site_occupancy
  Na  Na0  1  0.79847957  0.29847957  0.59695913  1
  Na  Na1  1  0.20152043  0.70152043  0.40304087  1
  Pd  Pd2  1  0.10697561  0.10697561  0.21395223  1
  Pd  Pd3  1  0.89302439  0.89302439  0.78604777  1
  Pd  Pd4  1  0.50000000  0.50000000  -0.00000000  1
  O  O5  1  0.61609252  0.86933559  0.23218405  1
  O  O6  1  0.38390748  0.13066441  0.76781595  1
  O  O7  1  0.38390748  0.63715155  0.76781595  1
  O  O8  1  0.61609252  0.36284845  0.23218405  1
