# generated using pymatgen
data_Er10Ru10C19
_symmetry_space_group_name_H-M   'P 1'
_cell_length_a   8.13133097
_cell_length_b   8.13133172
_cell_length_c   9.99000928
_cell_angle_alpha   70.87653899
_cell_angle_beta   70.87655380
_cell_angle_gamma   52.45800307
_symmetry_Int_Tables_number   1
_chemical_formula_structural   Er10Ru10C19
_chemical_formula_sum   'Er10 Ru10 C19'
_cell_volume   487.55820146
_cell_formula_units_Z   1
loop_
 _symmetry_equiv_pos_site_id
 _symmetry_equiv_pos_as_xyz
  1  'x, y, z'
loop_
 _atom_site_type_symbol
 _atom_site_label
 _atom_site_symmetry_multiplicity
 _atom_site_fract_x
 _atom_site_fract_y
 _atom_site_fract_z
 _atom_site_occupancy
  Er  Er0  1  -0.00033650  -0.00033556  0.01057776  1
  Er  Er1  1  0.47799821  0.47799881  0.01082388  1
  Er  Er2  1  0.32257764  0.32257800  0.38736590  1
  Er  Er3  1  0.51070165  0.51070237  0.63578447  1
  Er  Er4  1  0.01613785  0.01613712  0.61921721  1
  Er  Er5  1  0.82152897  0.82152845  0.40001526  1
  Er  Er6  1  0.62628975  0.62629074  0.26118924  1
  Er  Er7  1  0.75120761  0.75120790  0.76088220  1
  Er  Er8  1  0.14252343  0.14252262  0.23492528  1
  Er  Er9  1  0.25480258  0.25480217  0.78562222  1
  Ru  Ru10  1  0.46123862  0.89417441  0.01048922  1
  Ru  Ru11  1  0.22006179  0.72573442  0.41641608  1
  Ru  Ru12  1  0.72573453  0.22006220  0.41641651  1
  Ru  Ru13  1  0.41798112  0.93506204  0.60430553  1
  Ru  Ru14  1  0.02244308  0.59816073  0.15668490  1
  Ru  Ru15  1  0.59816138  0.02244255  0.15668505  1
  Ru  Ru16  1  0.67079916  0.09615882  0.86441503  1
  Ru  Ru17  1  0.09615898  0.67079898  0.86441551  1
  Ru  Ru18  1  0.93506214  0.41798129  0.60430597  1
  Ru  Ru19  1  0.89417462  0.46123879  0.01048924  1
  C  C20  1  0.78834528  0.78834541  0.01054051  1
  C  C21  1  0.39290814  0.18765771  0.01063068  1
  C  C22  1  0.18765765  0.39290816  0.01063068  1
  C  C23  1  0.35490658  0.86069349  0.44403682  1
  C  C24  1  0.86069317  0.35490666  0.44403721  1
  C  C25  1  0.08470372  0.56429753  0.57739685  1
  C  C26  1  0.56429750  0.08470329  0.57739718  1
  C  C27  1  0.45872448  0.95476079  0.36864494  1
  C  C28  1  0.95476058  0.45872449  0.36864514  1
  C  C29  1  0.63631460  0.13520784  0.65242780  1
  C  C30  1  0.18239033  0.68760274  0.21717981  1
  C  C31  1  0.28582480  0.79120739  0.80389140  1
  C  C32  1  0.79120738  0.28582482  0.80389116  1
  C  C33  1  0.28515270  0.78565302  0.17544388  1
  C  C34  1  0.68760313  0.18239036  0.21717954  1
  C  C35  1  0.78565344  0.28515296  0.17544384  1
  C  C36  1  0.36754089  0.86831080  0.84574438  1
  C  C37  1  0.86831067  0.36754106  0.84574417  1
  C  C38  1  0.13520836  0.63631464  0.65242756  1
