# generated using pymatgen
data_Sc2V3Ge4
_symmetry_space_group_name_H-M   'P 1'
_cell_length_a   6.62059328
_cell_length_b   6.79020060
_cell_length_c   12.79300531
_cell_angle_alpha   90.00000000
_cell_angle_beta   90.00000000
_cell_angle_gamma   90.00000000
_symmetry_Int_Tables_number   1
_chemical_formula_structural   Sc2V3Ge4
_chemical_formula_sum   'Sc8 V12 Ge16'
_cell_volume   575.11155533
_cell_formula_units_Z   4
loop_
 _symmetry_equiv_pos_site_id
 _symmetry_equiv_pos_as_xyz
  1  'x, y, z'
loop_
 _atom_site_type_symbol
 _atom_site_label
 _atom_site_symmetry_multiplicity
 _atom_site_fract_x
 _atom_site_fract_y
 _atom_site_fract_z
 _atom_site_occupancy
  Sc  Sc0  1  0.00781409  0.17515701  0.09395397  1
  Sc  Sc1  1  0.50781409  0.32484299  0.40604603  1
  Sc  Sc2  1  0.49218591  0.67515701  0.90604603  1
  Sc  Sc3  1  0.99218591  0.82484299  0.59395397  1
  Sc  Sc4  1  0.99218591  0.82484299  0.90604603  1
  Sc  Sc5  1  0.49218591  0.67515701  0.59395397  1
  Sc  Sc6  1  0.50781409  0.32484299  0.09395397  1
  Sc  Sc7  1  0.00781409  0.17515701  0.40604603  1
  V  V8  1  0.66455306  0.98536983  0.25000000  1
  V  V9  1  0.16455306  0.51463017  0.25000000  1
  V  V10  1  0.83544694  0.48536983  0.75000000  1
  V  V11  1  0.33544694  0.01463017  0.75000000  1
  V  V12  1  0.84114637  0.66679655  0.12665422  1
  V  V13  1  0.34114637  0.83320345  0.37334578  1
  V  V14  1  0.65885363  0.16679655  0.87334578  1
  V  V15  1  0.15885363  0.33320345  0.62665422  1
  V  V16  1  0.15885363  0.33320345  0.87334578  1
  V  V17  1  0.65885363  0.16679655  0.62665422  1
  V  V18  1  0.34114637  0.83320345  0.12665422  1
  V  V19  1  0.84114637  0.66679655  0.37334578  1
  Ge  Ge20  1  0.80885371  0.35648249  0.25000000  1
  Ge  Ge21  1  0.30885371  0.14351751  0.25000000  1
  Ge  Ge22  1  0.69114629  0.85648249  0.75000000  1
  Ge  Ge23  1  0.19114629  0.64351751  0.75000000  1
  Ge  Ge24  1  0.03743476  0.87808452  0.25000000  1
  Ge  Ge25  1  0.53743476  0.62191548  0.25000000  1
  Ge  Ge26  1  0.46256524  0.37808452  0.75000000  1
  Ge  Ge27  1  0.96256524  0.12191548  0.75000000  1
  Ge  Ge28  1  0.82285436  0.45836915  0.95727045  1
  Ge  Ge29  1  0.32285436  0.04163085  0.54272955  1
  Ge  Ge30  1  0.67714564  0.95836915  0.04272955  1
  Ge  Ge31  1  0.17714564  0.54163085  0.45727045  1
  Ge  Ge32  1  0.17714564  0.54163085  0.04272955  1
  Ge  Ge33  1  0.67714564  0.95836915  0.45727045  1
  Ge  Ge34  1  0.32285436  0.04163085  0.95727045  1
  Ge  Ge35  1  0.82285436  0.45836915  0.54272955  1
