# generated using pymatgen
data_Rb2TbF6
_symmetry_space_group_name_H-M   'P 1'
_cell_length_a   6.84433977
_cell_length_b   6.84433977
_cell_length_c   7.37748253
_cell_angle_alpha   88.99750854
_cell_angle_beta   88.99750854
_cell_angle_gamma   117.29984857
_symmetry_Int_Tables_number   1
_chemical_formula_structural   Rb2TbF6
_chemical_formula_sum   'Rb4 Tb2 F12'
_cell_volume   306.93112121
_cell_formula_units_Z   2
loop_
 _symmetry_equiv_pos_site_id
 _symmetry_equiv_pos_as_xyz
  1  'x, y, z'
loop_
 _atom_site_type_symbol
 _atom_site_label
 _atom_site_symmetry_multiplicity
 _atom_site_fract_x
 _atom_site_fract_y
 _atom_site_fract_z
 _atom_site_occupancy
  Rb  Rb0  1  0.63706250  0.32415210  0.99836362  1
  Rb  Rb1  1  0.67584790  0.36293750  0.50163638  1
  Rb  Rb2  1  0.32415210  0.63706250  0.49836362  1
  Rb  Rb3  1  0.36293750  0.67584790  0.00163638  1
  Tb  Tb4  1  0.96098466  0.03901534  0.25000000  1
  Tb  Tb5  1  0.03901534  0.96098466  0.75000000  1
  F  F6  1  0.13550689  0.92845463  0.04484804  1
  F  F7  1  0.07154537  0.86449311  0.45515196  1
  F  F8  1  0.86449311  0.07154537  0.95515196  1
  F  F9  1  0.92845463  0.13550689  0.54484804  1
  F  F10  1  0.00850020  0.61481643  0.77020904  1
  F  F11  1  0.38518357  0.99149980  0.72979096  1
  F  F12  1  0.69418269  0.69255212  0.24027997  1
  F  F13  1  0.30744788  0.30581731  0.25972003  1
  F  F14  1  0.30581731  0.30744788  0.75972003  1
  F  F15  1  0.69255212  0.69418269  0.74027997  1
  F  F16  1  0.61481643  0.00850020  0.27020904  1
  F  F17  1  0.99149980  0.38518357  0.22979096  1
