# generated using pymatgen
data_Nd(FeSi)2
_symmetry_space_group_name_H-M   'P 1'
_cell_length_a   4.00998409
_cell_length_b   4.00998337
_cell_length_c   5.61290551
_cell_angle_alpha   110.92902945
_cell_angle_beta   110.92902896
_cell_angle_gamma   89.99997629
_symmetry_Int_Tables_number   1
_chemical_formula_structural   Nd(FeSi)2
_chemical_formula_sum   'Nd1 Fe2 Si2'
_cell_volume   77.89200417
_cell_formula_units_Z   1
loop_
 _symmetry_equiv_pos_site_id
 _symmetry_equiv_pos_as_xyz
  1  'x, y, z'
loop_
 _atom_site_type_symbol
 _atom_site_label
 _atom_site_symmetry_multiplicity
 _atom_site_fract_x
 _atom_site_fract_y
 _atom_site_fract_z
 _atom_site_occupancy
  Nd  Nd0  1  0.00000000  0.00000000  0.00000000  1
  Fe  Fe1  1  0.25000000  0.75000000  0.50000000  1
  Fe  Fe2  1  0.75000000  0.25000000  0.50000000  1
  Si  Si3  1  0.64325592  0.64325592  0.28651383  1
  Si  Si4  1  0.35674408  0.35674408  0.71348617  1
