# generated using pymatgen
data_Na3ZrF7
_symmetry_space_group_name_H-M   'P 1'
_cell_length_a   5.36697938
_cell_length_b   5.36697938
_cell_length_c   6.25755692
_cell_angle_alpha   66.26826764
_cell_angle_beta   66.26826764
_cell_angle_gamma   89.58392500
_symmetry_Int_Tables_number   1
_chemical_formula_structural   Na3ZrF7
_chemical_formula_sum   'Na3 Zr1 F7'
_cell_volume   148.45496679
_cell_formula_units_Z   1
loop_
 _symmetry_equiv_pos_site_id
 _symmetry_equiv_pos_as_xyz
  1  'x, y, z'
loop_
 _atom_site_type_symbol
 _atom_site_label
 _atom_site_symmetry_multiplicity
 _atom_site_fract_x
 _atom_site_fract_y
 _atom_site_fract_z
 _atom_site_occupancy
  Na  Na0  1  0.22351679  0.76295135  0.51046628  1
  Na  Na1  1  0.50995138  0.50995138  0.96217119  1
  Na  Na2  1  0.76295135  0.22351679  0.51046628  1
  Zr  Zr3  1  0.04841647  0.04841647  0.97110200  1
  F  F4  1  0.84617080  0.84617080  0.84916137  1
  F  F5  1  0.36045265  0.89589059  0.76104457  1
  F  F6  1  0.03244542  0.66482151  0.24575545  1
  F  F7  1  0.89589059  0.36045265  0.76104457  1
  F  F8  1  0.37971140  0.37971140  0.71514706  1
  F  F9  1  0.66482151  0.03244542  0.24575545  1
  F  F10  1  0.15066964  0.15066964  0.21788379  1
