# generated using pymatgen
data_Na2CO3
_symmetry_space_group_name_H-M   'P 1'
_cell_length_a   5.27470632
_cell_length_b   5.12326359
_cell_length_c   5.92374836
_cell_angle_alpha   101.32393412
_cell_angle_beta   90.00000000
_cell_angle_gamma   120.98274484
_symmetry_Int_Tables_number   1
_chemical_formula_structural   Na2CO3
_chemical_formula_sum   'Na4 C2 O6'
_cell_volume   133.59350081
_cell_formula_units_Z   2
loop_
 _symmetry_equiv_pos_site_id
 _symmetry_equiv_pos_as_xyz
  1  'x, y, z'
loop_
 _atom_site_type_symbol
 _atom_site_label
 _atom_site_symmetry_multiplicity
 _atom_site_fract_x
 _atom_site_fract_y
 _atom_site_fract_z
 _atom_site_occupancy
  Na  Na0  1  0.00000000  0.00000000  0.00000000  1
  Na  Na1  1  0.00000000  0.00000000  0.50000000  1
  Na  Na2  1  0.66944264  0.33888527  0.74106665  1
  Na  Na3  1  0.33055736  0.66111473  0.25893335  1
  C  C4  1  0.66351355  0.32702610  0.24896261  1
  C  C5  1  0.33648645  0.67297390  0.75103739  1
  O  O6  1  0.81266027  0.20210585  0.29131646  1
  O  O7  1  0.38944558  0.20210585  0.29131646  1
  O  O8  1  0.18733973  0.79789415  0.70868354  1
  O  O9  1  0.61055442  0.79789415  0.70868354  1
  O  O10  1  0.78767809  0.57535518  0.16718185  1
  O  O11  1  0.21232191  0.42464482  0.83281815  1
