# generated using pymatgen
data_CeAl4Ni
_symmetry_space_group_name_H-M   'P 1'
_cell_length_a   4.10323918
_cell_length_b   6.60511109
_cell_length_c   8.04856591
_cell_angle_alpha   90.00000000
_cell_angle_beta   104.76795366
_cell_angle_gamma   90.00000000
_symmetry_Int_Tables_number   1
_chemical_formula_structural   CeAl4Ni
_chemical_formula_sum   'Ce2 Al8 Ni2'
_cell_volume   210.92920621
_cell_formula_units_Z   2
loop_
 _symmetry_equiv_pos_site_id
 _symmetry_equiv_pos_as_xyz
  1  'x, y, z'
loop_
 _atom_site_type_symbol
 _atom_site_label
 _atom_site_symmetry_multiplicity
 _atom_site_fract_x
 _atom_site_fract_y
 _atom_site_fract_z
 _atom_site_occupancy
  Ce  Ce0  1  0.11472052  0.75000100  0.22944105  1
  Ce  Ce1  1  0.88527948  0.24999900  0.77055895  1
  Al  Al2  1  0.50000000  -0.00000000  -0.00000000  1
  Al  Al3  1  0.50000000  0.50000000  -0.00000000  1
  Al  Al4  1  0.07857210  0.25000000  0.15714421  1
  Al  Al5  1  0.92142790  0.75000000  0.84285579  1
  Al  Al6  1  0.69087715  0.05431383  0.38175529  1
  Al  Al7  1  0.30912285  0.94568617  0.61824471  1
  Al  Al8  1  0.30912285  0.55431383  0.61824471  1
  Al  Al9  1  0.69087715  0.44568617  0.38175529  1
  Ni  Ni10  1  0.77366923  0.75000000  0.54733946  1
  Ni  Ni11  1  0.22633077  0.25000000  0.45266054  1
