# generated using pymatgen
data_Mn3Nb6O11
_symmetry_space_group_name_H-M   'P 1'
_cell_length_a   6.12120682
_cell_length_b   15.31649322
_cell_length_c   6.12120732
_cell_angle_alpha   90.00003660
_cell_angle_beta   120.00004615
_cell_angle_gamma   89.99991245
_symmetry_Int_Tables_number   1
_chemical_formula_structural   Mn3Nb6O11
_chemical_formula_sum   'Mn6 Nb12 O22'
_cell_volume   497.00861290
_cell_formula_units_Z   2
loop_
 _symmetry_equiv_pos_site_id
 _symmetry_equiv_pos_as_xyz
  1  'x, y, z'
loop_
 _atom_site_type_symbol
 _atom_site_label
 _atom_site_symmetry_multiplicity
 _atom_site_fract_x
 _atom_site_fract_y
 _atom_site_fract_z
 _atom_site_occupancy
  Mn  Mn0  1  0.00000110  0.25000075  0.99999716  1
  Mn  Mn1  1  0.66667823  0.78395747  0.33333998  1
  Mn  Mn2  1  0.33332894  0.71604093  0.66667163  1
  Mn  Mn3  1  0.00000515  0.74999905  0.00000525  1
  Mn  Mn4  1  0.66666834  0.28395862  0.33332687  1
  Mn  Mn5  1  0.33333304  0.21604287  0.66666592  1
  Nb  Nb6  1  0.15416903  0.42517244  0.84582892  1
  Nb  Nb7  1  0.15417153  0.92517882  0.84583232  1
  Nb  Nb8  1  0.69165902  0.42517204  0.84582813  1
  Nb  Nb9  1  0.69166168  0.92517858  0.84583155  1
  Nb  Nb10  1  0.15416971  0.42517235  0.30833941  1
  Nb  Nb11  1  0.15417147  0.92517909  0.30834080  1
  Nb  Nb12  1  0.84583226  0.07482650  0.69166416  1
  Nb  Nb13  1  0.84582523  0.57482144  0.69165580  1
  Nb  Nb14  1  0.30833619  0.07482663  0.15416757  1
  Nb  Nb15  1  0.30833871  0.57482221  0.15417003  1
  Nb  Nb16  1  0.84583250  0.07482679  0.15416754  1
  Nb  Nb17  1  0.84582640  0.57482135  0.15416970  1
  O  O18  1  0.33333169  0.34733218  0.66666596  1
  O  O19  1  0.33333441  0.84732013  0.66666816  1
  O  O20  1  0.66666627  0.15267025  0.33333265  1
  O  O21  1  0.66666385  0.65267802  0.33333153  1
  O  O22  1  0.50000147  0.99999368  0.00000175  1
  O  O23  1  0.49999690  0.50000644  0.99999698  1
  O  O24  1  0.50000166  0.99999364  0.50000029  1
  O  O25  1  0.49999712  0.50000646  0.49999981  1
  O  O26  1  -0.00000129  0.99999348  0.49999940  1
  O  O27  1  -0.00000058  0.50000627  0.49999930  1
  O  O28  1  0.84257463  0.34074980  0.15742206  1
  O  O29  1  0.84257015  0.84073601  0.15743306  1
  O  O30  1  0.31484998  0.34074989  0.15742532  1
  O  O31  1  0.31486664  0.84073610  0.15743487  1
  O  O32  1  0.84257401  0.34075026  0.68514858  1
  O  O33  1  0.84257071  0.84073618  0.68513869  1
  O  O34  1  0.15742540  0.15925183  0.31484954  1
  O  O35  1  0.15742982  0.65926164  0.31486300  1
  O  O36  1  0.68515042  0.15925175  0.84257467  1
  O  O37  1  0.68513711  0.65926223  0.84256869  1
  O  O38  1  0.15742455  0.15925183  0.84257341  1
  O  O39  1  0.15742756  0.65926203  0.84256753  1
