# generated using pymatgen
data_CsClO4
_symmetry_space_group_name_H-M   'P 1'
_cell_length_a   5.96806725
_cell_length_b   7.83321590
_cell_length_c   9.82125627
_cell_angle_alpha   90.00000000
_cell_angle_beta   90.00000000
_cell_angle_gamma   90.00000000
_symmetry_Int_Tables_number   1
_chemical_formula_structural   CsClO4
_chemical_formula_sum   'Cs4 Cl4 O16'
_cell_volume   459.13547365
_cell_formula_units_Z   4
loop_
 _symmetry_equiv_pos_site_id
 _symmetry_equiv_pos_as_xyz
  1  'x, y, z'
loop_
 _atom_site_type_symbol
 _atom_site_label
 _atom_site_symmetry_multiplicity
 _atom_site_fract_x
 _atom_site_fract_y
 _atom_site_fract_z
 _atom_site_occupancy
  Cs  Cs0  1  0.25000000  0.33867466  0.68842109  1
  Cs  Cs1  1  0.75000000  0.66132534  0.31157891  1
  Cs  Cs2  1  0.75000000  0.83867466  0.81157891  1
  Cs  Cs3  1  0.25000000  0.16132534  0.18842109  1
  Cl  Cl4  1  0.25000000  0.69722877  0.05684067  1
  Cl  Cl5  1  0.75000000  0.30277123  0.94315933  1
  Cl  Cl6  1  0.75000000  0.19722877  0.44315933  1
  Cl  Cl7  1  0.25000000  0.80277123  0.55684067  1
  O  O8  1  0.75000000  0.12474631  0.57795830  1
  O  O9  1  0.55260169  0.30308505  0.42564533  1
  O  O10  1  0.05260169  0.80308505  0.07435467  1
  O  O11  1  0.25000000  0.93588434  0.65850411  1
  O  O12  1  0.25000000  0.56411566  0.15850411  1
  O  O13  1  0.75000000  0.37525369  0.07795830  1
  O  O14  1  0.44739831  0.80308505  0.07435467  1
  O  O15  1  0.55260169  0.19691495  0.92564533  1
  O  O16  1  0.25000000  0.62474631  0.92204170  1
  O  O17  1  0.44739831  0.69691495  0.57435467  1
  O  O18  1  0.94739831  0.19691495  0.92564533  1
  O  O19  1  0.05260169  0.69691495  0.57435467  1
  O  O20  1  0.75000000  0.06411566  0.34149589  1
  O  O21  1  0.75000000  0.43588434  0.84149589  1
  O  O22  1  0.25000000  0.87525369  0.42204170  1
  O  O23  1  0.94739831  0.30308505  0.42564533  1
