# generated using pymatgen
data_Lu3Ge3Ir2
_symmetry_space_group_name_H-M   'P 1'
_cell_length_a   4.25544681
_cell_length_b   5.52238412
_cell_length_c   14.01045854
_cell_angle_alpha   90.00000000
_cell_angle_beta   90.00000000
_cell_angle_gamma   112.66178459
_symmetry_Int_Tables_number   1
_chemical_formula_structural   Lu3Ge3Ir2
_chemical_formula_sum   'Lu6 Ge6 Ir4'
_cell_volume   303.82918660
_cell_formula_units_Z   2
loop_
 _symmetry_equiv_pos_site_id
 _symmetry_equiv_pos_as_xyz
  1  'x, y, z'
loop_
 _atom_site_type_symbol
 _atom_site_label
 _atom_site_symmetry_multiplicity
 _atom_site_fract_x
 _atom_site_fract_y
 _atom_site_fract_z
 _atom_site_occupancy
  Lu  Lu0  1  0.58451266  0.16902533  0.38990074  1
  Lu  Lu1  1  0.58451266  0.16902533  0.11009926  1
  Lu  Lu2  1  0.14399403  0.28798807  0.75000000  1
  Lu  Lu3  1  0.85600597  0.71201193  0.25000000  1
  Lu  Lu4  1  0.41548734  0.83097467  0.61009926  1
  Lu  Lu5  1  0.41548734  0.83097467  0.88990074  1
  Ge  Ge6  1  0.12207860  0.24415721  0.53530685  1
  Ge  Ge7  1  0.12207860  0.24415721  0.96469315  1
  Ge  Ge8  1  0.15219317  0.30438534  0.25000000  1
  Ge  Ge9  1  0.87792140  0.75584279  0.03530685  1
  Ge  Ge10  1  0.87792140  0.75584279  0.46469315  1
  Ge  Ge11  1  0.84780683  0.69561466  0.75000000  1
  Ir  Ir12  1  0.69975753  0.39951306  0.60309328  1
  Ir  Ir13  1  0.30024247  0.60048694  0.10309328  1
  Ir  Ir14  1  0.69975753  0.39951306  0.89690672  1
  Ir  Ir15  1  0.30024247  0.60048694  0.39690672  1
