# generated using pymatgen
data_Sm2Tl
_symmetry_space_group_name_H-M   'P 1'
_cell_length_a   5.49790877
_cell_length_b   5.49790867
_cell_length_c   6.82934433
_cell_angle_alpha   90.00000000
_cell_angle_beta   90.00000000
_cell_angle_gamma   120.00000690
_symmetry_Int_Tables_number   1
_chemical_formula_structural   Sm2Tl
_chemical_formula_sum   'Sm4 Tl2'
_cell_volume   178.77412529
_cell_formula_units_Z   2
loop_
 _symmetry_equiv_pos_site_id
 _symmetry_equiv_pos_as_xyz
  1  'x, y, z'
loop_
 _atom_site_type_symbol
 _atom_site_label
 _atom_site_symmetry_multiplicity
 _atom_site_fract_x
 _atom_site_fract_y
 _atom_site_fract_z
 _atom_site_occupancy
  Sm  Sm0  1  -0.00000000  -0.00000000  -0.00000000  1
  Sm  Sm1  1  -0.00000000  -0.00000000  0.50000000  1
  Sm  Sm2  1  0.33333300  0.66666700  0.75004983  1
  Sm  Sm3  1  0.66666700  0.33333300  0.24995017  1
  Tl  Tl4  1  0.33333300  0.66666700  0.24998438  1
  Tl  Tl5  1  0.66666700  0.33333300  0.75001562  1
