# generated using pymatgen
data_Na2SiF6
_symmetry_space_group_name_H-M   'P 1'
_cell_length_a   8.80252010
_cell_length_b   8.80275868
_cell_length_c   4.96761863
_cell_angle_alpha   89.99881117
_cell_angle_beta   89.99986535
_cell_angle_gamma   120.00407965
_symmetry_Int_Tables_number   1
_chemical_formula_structural   Na2SiF6
_chemical_formula_sum   'Na6 Si3 F18'
_cell_volume   333.33955041
_cell_formula_units_Z   3
loop_
 _symmetry_equiv_pos_site_id
 _symmetry_equiv_pos_as_xyz
  1  'x, y, z'
loop_
 _atom_site_type_symbol
 _atom_site_label
 _atom_site_symmetry_multiplicity
 _atom_site_fract_x
 _atom_site_fract_y
 _atom_site_fract_z
 _atom_site_occupancy
  Na  Na0  1  -0.00002071  0.28954207  0.49984447  1
  Na  Na1  1  0.28958324  0.00006182  0.49990974  1
  Na  Na2  1  0.71046563  0.71041057  0.49993711  1
  Na  Na3  1  -0.00008409  0.62514533  0.99962629  1
  Na  Na4  1  0.62524653  0.00010323  0.99961921  1
  Na  Na5  1  0.37483756  0.37474381  0.99960682  1
  Si  Si6  1  0.66667914  0.33333595  0.49438088  1
  Si  Si7  1  0.33333005  0.66666858  0.50563687  1
  Si  Si8  1  -0.00000890  -0.00000106  0.00013015  1
  F  F9  1  0.74102008  0.22593554  0.69129327  1
  F  F10  1  0.77408607  0.51508301  0.69131184  1
  F  F11  1  0.48492696  0.25899076  0.69130765  1
  F  F12  1  0.51508727  0.77423827  0.30881426  1
  F  F13  1  0.25914765  0.48493305  0.30878310  1
  F  F14  1  0.22576925  0.74085209  0.30879154  1
  F  F15  1  0.59545833  0.44314725  0.29735818  1
  F  F16  1  0.55684974  0.15229978  0.29737659  1
  F  F17  1  0.84770898  0.40455437  0.29736608  1
  F  F18  1  0.08515082  0.90274156  0.80496997  1
  F  F19  1  0.09724773  0.18241810  0.80499158  1
  F  F20  1  0.81756445  0.91483993  0.80502137  1
  F  F21  1  0.18242231  0.09774717  0.19525371  1
  F  F22  1  0.91531053  0.81758599  0.19529235  1
  F  F23  1  0.90226117  0.08466356  0.19527471  1
  F  F24  1  0.44331236  0.59564254  0.70269567  1
  F  F25  1  0.40433716  0.84766514  0.70272365  1
  F  F26  1  0.15231166  0.55665256  0.70268095  1
