# generated using pymatgen
data_TbNiSb
_symmetry_space_group_name_H-M   'P 1'
_cell_length_a   4.47858958
_cell_length_b   4.47859011
_cell_length_c   4.47858943
_cell_angle_alpha   60.00000496
_cell_angle_beta   60.00000104
_cell_angle_gamma   60.00000901
_symmetry_Int_Tables_number   1
_chemical_formula_structural   TbNiSb
_chemical_formula_sum   'Tb1 Ni1 Sb1'
_cell_volume   63.51976525
_cell_formula_units_Z   1
loop_
 _symmetry_equiv_pos_site_id
 _symmetry_equiv_pos_as_xyz
  1  'x, y, z'
loop_
 _atom_site_type_symbol
 _atom_site_label
 _atom_site_symmetry_multiplicity
 _atom_site_fract_x
 _atom_site_fract_y
 _atom_site_fract_z
 _atom_site_occupancy
  Tb  Tb0  1  0.50000000  0.50000000  0.50000000  1
  Ni  Ni1  1  0.25000000  0.25000000  0.25000000  1
  Sb  Sb2  1  -0.00000000  0.00000000  -0.00000000  1
