# generated using pymatgen
data_La5Sn3I
_symmetry_space_group_name_H-M   'P 1'
_cell_length_a   9.78693246
_cell_length_b   9.78693388
_cell_length_c   7.16629120
_cell_angle_alpha   89.99999691
_cell_angle_beta   90.00002404
_cell_angle_gamma   120.00003042
_symmetry_Int_Tables_number   1
_chemical_formula_structural   La5Sn3I
_chemical_formula_sum   'La10 Sn6 I2'
_cell_volume   594.45392062
_cell_formula_units_Z   2
loop_
 _symmetry_equiv_pos_site_id
 _symmetry_equiv_pos_as_xyz
  1  'x, y, z'
loop_
 _atom_site_type_symbol
 _atom_site_label
 _atom_site_symmetry_multiplicity
 _atom_site_fract_x
 _atom_site_fract_y
 _atom_site_fract_z
 _atom_site_occupancy
  La  La0  1  0.72205809  0.72206073  0.25000000  1
  La  La1  1  0.33333300  0.66666700  0.50000000  1
  La  La2  1  0.27794027  0.27794191  0.75000000  1
  La  La3  1  0.00000164  0.27794191  0.25000000  1
  La  La4  1  0.66666700  0.33333300  0.50000000  1
  La  La5  1  0.27794027  0.99999836  0.25000000  1
  La  La6  1  0.72205809  0.99999836  0.75000000  1
  La  La7  1  0.33333300  0.66666700  0.00000000  1
  La  La8  1  0.66666700  0.33333300  -0.00000000  1
  La  La9  1  0.00000164  0.72205973  0.75000000  1
  Sn  Sn10  1  0.38468168  0.38470553  0.25000000  1
  Sn  Sn11  1  0.61529447  0.61531832  0.75000000  1
  Sn  Sn12  1  0.38468168  0.99997615  0.75000000  1
  Sn  Sn13  1  0.00002385  0.61531832  0.25000000  1
  Sn  Sn14  1  0.61529447  0.99997615  0.25000000  1
  Sn  Sn15  1  0.00002385  0.38470553  0.75000000  1
  I  I16  1  -0.00000000  0.00000000  -0.00000000  1
  I  I17  1  -0.00000000  0.00000000  0.50000000  1
