# generated using pymatgen
data_K3ErCl6
_symmetry_space_group_name_H-M   'P 1'
_cell_length_a   7.73533726
_cell_length_b   12.54369776
_cell_length_c   13.03732929
_cell_angle_alpha   69.84262262
_cell_angle_beta   90.00000000
_cell_angle_gamma   90.00000000
_symmetry_Int_Tables_number   1
_chemical_formula_structural   K3ErCl6
_chemical_formula_sum   'K12 Er4 Cl24'
_cell_volume   1187.52633440
_cell_formula_units_Z   4
loop_
 _symmetry_equiv_pos_site_id
 _symmetry_equiv_pos_as_xyz
  1  'x, y, z'
loop_
 _atom_site_type_symbol
 _atom_site_label
 _atom_site_symmetry_multiplicity
 _atom_site_fract_x
 _atom_site_fract_y
 _atom_site_fract_z
 _atom_site_occupancy
  K  K0  1  0.57781412  0.89097724  0.82319093  1
  K  K1  1  0.07781412  0.60902276  0.17680907  1
  K  K2  1  0.42218588  0.10902276  0.17680907  1
  K  K3  1  0.92218588  0.39097724  0.82319093  1
  K  K4  1  0.05382101  0.73291875  0.81163231  1
  K  K5  1  0.55382101  0.76708125  0.18836769  1
  K  K6  1  0.94617899  0.26708125  0.18836769  1
  K  K7  1  0.44617899  0.23291875  0.81163231  1
  K  K8  1  0.46087451  0.62841331  0.60909272  1
  K  K9  1  0.96087451  0.87158669  0.39090728  1
  K  K10  1  0.53912549  0.37158669  0.39090728  1
  K  K11  1  0.03912549  0.12841331  0.60909272  1
  Er  Er12  1  0.00000000  0.50000000  0.50000000  1
  Er  Er13  1  0.50000000  0.00000000  0.50000000  1
  Er  Er14  1  0.50000000  0.50000000  -0.00000000  1
  Er  Er15  1  0.00000000  0.00000000  -0.00000000  1
  Cl  Cl16  1  0.16765553  0.34917664  0.65376447  1
  Cl  Cl17  1  0.66765553  0.15082336  0.34623553  1
  Cl  Cl18  1  0.83234447  0.65082336  0.34623553  1
  Cl  Cl19  1  0.33234447  0.84917664  0.65376447  1
  Cl  Cl20  1  0.70798699  0.42551903  0.60675285  1
  Cl  Cl21  1  0.20798699  0.07448097  0.39324715  1
  Cl  Cl22  1  0.29201301  0.57448097  0.39324715  1
  Cl  Cl23  1  0.79201301  0.92551903  0.60675285  1
  Cl  Cl24  1  0.03314567  0.64418821  0.60088563  1
  Cl  Cl25  1  0.53314567  0.85581179  0.39911437  1
  Cl  Cl26  1  0.96685433  0.35581179  0.39911437  1
  Cl  Cl27  1  0.46685433  0.14418821  0.60088563  1
  Cl  Cl28  1  0.70226964  0.60791309  0.83616016  1
  Cl  Cl29  1  0.20226964  0.89208691  0.16383984  1
  Cl  Cl30  1  0.29773036  0.39208691  0.16383984  1
  Cl  Cl31  1  0.79773036  0.10791309  0.83616016  1
  Cl  Cl32  1  0.87088044  0.80666585  0.99850325  1
  Cl  Cl33  1  0.37088044  0.69333415  0.00149675  1
  Cl  Cl34  1  0.12911956  0.19333415  0.00149675  1
  Cl  Cl35  1  0.62911956  0.30666585  0.99850325  1
  Cl  Cl36  1  0.77030767  0.99929718  0.14556177  1
  Cl  Cl37  1  0.27030767  0.50070282  0.85443823  1
  Cl  Cl38  1  0.22969233  0.00070282  0.85443823  1
  Cl  Cl39  1  0.72969233  0.49929718  0.14556177  1
