# generated using pymatgen
data_Sm(SiRh)2
_symmetry_space_group_name_H-M   'P 1'
_cell_length_a   4.07222250
_cell_length_b   4.07222288
_cell_length_c   5.79036881
_cell_angle_alpha   110.58749387
_cell_angle_beta   110.58750806
_cell_angle_gamma   89.99999682
_symmetry_Int_Tables_number   1
_chemical_formula_structural   Sm(SiRh)2
_chemical_formula_sum   'Sm1 Si2 Rh2'
_cell_volume   83.30687972
_cell_formula_units_Z   1
loop_
 _symmetry_equiv_pos_site_id
 _symmetry_equiv_pos_as_xyz
  1  'x, y, z'
loop_
 _atom_site_type_symbol
 _atom_site_label
 _atom_site_symmetry_multiplicity
 _atom_site_fract_x
 _atom_site_fract_y
 _atom_site_fract_z
 _atom_site_occupancy
  Sm  Sm0  1  -0.00000000  -0.00000000  -0.00000000  1
  Si  Si1  1  0.62402106  0.62402106  0.24804312  1
  Si  Si2  1  0.37597894  0.37597894  0.75195688  1
  Rh  Rh3  1  0.25000000  0.75000000  0.50000000  1
  Rh  Rh4  1  0.75000000  0.25000000  0.50000000  1
