# generated using pymatgen
data_Be2SiO4
_symmetry_space_group_name_H-M   'P 1'
_cell_length_a   7.70666776
_cell_length_b   7.70666776
_cell_length_c   7.70666652
_cell_angle_alpha   108.00659694
_cell_angle_beta   108.00659694
_cell_angle_gamma   108.00659329
_symmetry_Int_Tables_number   1
_chemical_formula_structural   Be2SiO4
_chemical_formula_sum   'Be12 Si6 O24'
_cell_volume   370.22802542
_cell_formula_units_Z   6
loop_
 _symmetry_equiv_pos_site_id
 _symmetry_equiv_pos_as_xyz
  1  'x, y, z'
loop_
 _atom_site_type_symbol
 _atom_site_label
 _atom_site_symmetry_multiplicity
 _atom_site_fract_x
 _atom_site_fract_y
 _atom_site_fract_z
 _atom_site_occupancy
  Be  Be0  1  0.87230773  0.10223986  0.27845034  1
  Be  Be1  1  0.10223986  0.27845034  0.87230773  1
  Be  Be2  1  0.27845034  0.87230773  0.10223986  1
  Be  Be3  1  0.12769227  0.89776014  0.72154966  1
  Be  Be4  1  0.89776014  0.72154966  0.12769227  1
  Be  Be5  1  0.72154966  0.12769227  0.89776014  1
  Be  Be6  1  0.39039517  0.79439541  0.56892920  1
  Be  Be7  1  0.56892920  0.39039517  0.79439541  1
  Be  Be8  1  0.79439541  0.56892920  0.39039517  1
  Be  Be9  1  0.60960483  0.20560459  0.43107080  1
  Be  Be10  1  0.43107080  0.60960483  0.20560459  1
  Be  Be11  1  0.20560459  0.43107080  0.60960483  1
  Si  Si12  1  0.53835762  0.76603200  0.94562974  1
  Si  Si13  1  0.76603200  0.94562974  0.53835762  1
  Si  Si14  1  0.94562974  0.53835762  0.76603200  1
  Si  Si15  1  0.46164238  0.23396800  0.05437026  1
  Si  Si16  1  0.23396800  0.05437026  0.46164238  1
  Si  Si17  1  0.05437026  0.46164238  0.23396800  1
  O  O18  1  0.29307804  0.62406164  0.32856366  1
  O  O19  1  0.32856366  0.29307804  0.62406164  1
  O  O20  1  0.62406164  0.32856366  0.29307804  1
  O  O21  1  0.70692196  0.37593836  0.67143634  1
  O  O22  1  0.67143634  0.70692196  0.37593836  1
  O  O23  1  0.37593836  0.67143634  0.70692196  1
  O  O24  1  0.04024971  0.33796868  0.37108924  1
  O  O25  1  0.37108924  0.04024971  0.33796868  1
  O  O26  1  0.33796868  0.37108924  0.04024971  1
  O  O27  1  0.95975029  0.66203132  0.62891076  1
  O  O28  1  0.62891076  0.95975029  0.66203132  1
  O  O29  1  0.66203132  0.62891076  0.95975029  1
  O  O30  1  0.91622812  0.58346390  0.25058630  1
  O  O31  1  0.25058630  0.91622812  0.58346390  1
  O  O32  1  0.58346390  0.25058630  0.91622812  1
  O  O33  1  0.08377188  0.41653610  0.74941370  1
  O  O34  1  0.74941370  0.08377188  0.41653610  1
  O  O35  1  0.41653610  0.74941370  0.08377188  1
  O  O36  1  0.96296163  0.29484623  0.99699699  1
  O  O37  1  0.99699699  0.96296163  0.29484623  1
  O  O38  1  0.29484623  0.99699699  0.96296163  1
  O  O39  1  0.03703837  0.70515377  0.00300301  1
  O  O40  1  0.00300301  0.03703837  0.70515377  1
  O  O41  1  0.70515377  0.00300301  0.03703837  1
