# generated using pymatgen
data_Th3B2C3
_symmetry_space_group_name_H-M   'P 1'
_cell_length_a   3.73969215
_cell_length_b   3.79175186
_cell_length_c   9.37348436
_cell_angle_alpha   90.00000000
_cell_angle_beta   103.41095520
_cell_angle_gamma   90.00000000
_symmetry_Int_Tables_number   1
_chemical_formula_structural   Th3B2C3
_chemical_formula_sum   'Th3 B2 C3'
_cell_volume   129.29145466
_cell_formula_units_Z   1
loop_
 _symmetry_equiv_pos_site_id
 _symmetry_equiv_pos_as_xyz
  1  'x, y, z'
loop_
 _atom_site_type_symbol
 _atom_site_label
 _atom_site_symmetry_multiplicity
 _atom_site_fract_x
 _atom_site_fract_y
 _atom_site_fract_z
 _atom_site_occupancy
  Th  Th0  1  0.00000000  0.00000000  -0.00000000  1
  Th  Th1  1  0.31849769  0.50000000  0.69784558  1
  Th  Th2  1  0.68150231  0.50000000  0.30215442  1
  B  B3  1  0.69907607  0.00000000  0.56006090  1
  B  B4  1  0.30092393  0.00000000  0.43993910  1
  C  C5  1  0.50000000  0.50000000  -0.00000000  1
  C  C6  1  0.83895501  0.00000000  0.72433006  1
  C  C7  1  0.16104499  0.00000000  0.27566994  1
