# generated using pymatgen
data_NpIO5
_symmetry_space_group_name_H-M   'P 1'
_cell_length_a   5.53386708
_cell_length_b   6.01685892
_cell_length_c   13.84653567
_cell_angle_alpha   90.00000000
_cell_angle_beta   90.00000000
_cell_angle_gamma   90.00000000
_symmetry_Int_Tables_number   1
_chemical_formula_structural   NpIO5
_chemical_formula_sum   'Np4 I4 O20'
_cell_volume   461.04114035
_cell_formula_units_Z   4
loop_
 _symmetry_equiv_pos_site_id
 _symmetry_equiv_pos_as_xyz
  1  'x, y, z'
loop_
 _atom_site_type_symbol
 _atom_site_label
 _atom_site_symmetry_multiplicity
 _atom_site_fract_x
 _atom_site_fract_y
 _atom_site_fract_z
 _atom_site_occupancy
  Np  Np0  1  0.40474510  0.75110185  0.97025936  1
  Np  Np1  1  0.90474510  0.24889815  0.02974064  1
  Np  Np2  1  0.40474510  0.74889815  0.47025936  1
  Np  Np3  1  0.90474510  0.25110185  0.52974064  1
  I  I4  1  0.40172838  0.51098944  0.21760087  1
  I  I5  1  0.90172838  0.48901056  0.78239913  1
  I  I6  1  0.40172838  0.98901056  0.71760087  1
  I  I7  1  0.90172838  0.01098944  0.28239913  1
  O  O8  1  0.60167536  0.99634431  0.98836612  1
  O  O9  1  0.10167536  0.00365569  0.01163388  1
  O  O10  1  0.60167536  0.50365569  0.48836612  1
  O  O11  1  0.10167536  0.49634431  0.51163388  1
  O  O12  1  0.18852877  0.50832321  0.95310609  1
  O  O13  1  0.68852877  0.49167679  0.04689391  1
  O  O14  1  0.18852877  0.99167679  0.45310609  1
  O  O15  1  0.68852877  0.00832321  0.54689391  1
  O  O16  1  0.82208659  0.24154292  0.35922426  1
  O  O17  1  0.32208659  0.75845708  0.64077574  1
  O  O18  1  0.82208659  0.25845708  0.85922426  1
  O  O19  1  0.32208659  0.74154292  0.14077574  1
  O  O20  1  0.73858459  0.10096234  0.17616888  1
  O  O21  1  0.23858459  0.89903766  0.82383112  1
  O  O22  1  0.73858459  0.39903766  0.67616888  1
  O  O23  1  0.23858459  0.60096234  0.32383112  1
  O  O24  1  0.67976220  0.81358926  0.32654383  1
  O  O25  1  0.17976220  0.18641074  0.67345617  1
  O  O26  1  0.67976220  0.68641074  0.82654383  1
  O  O27  1  0.17976220  0.31358926  0.17345617  1
