# generated using pymatgen
data_Mg(HO)2
_symmetry_space_group_name_H-M   'P 1'
_cell_length_a   3.14134000
_cell_length_b   3.14134000
_cell_length_c   4.61308521
_cell_angle_alpha   89.85588688
_cell_angle_beta   89.85588688
_cell_angle_gamma   59.89774073
_symmetry_Int_Tables_number   1
_chemical_formula_structural   Mg(HO)2
_chemical_formula_sum   'Mg1 H2 O2'
_cell_volume   39.38235951
_cell_formula_units_Z   1
loop_
 _symmetry_equiv_pos_site_id
 _symmetry_equiv_pos_as_xyz
  1  'x, y, z'
loop_
 _atom_site_type_symbol
 _atom_site_label
 _atom_site_symmetry_multiplicity
 _atom_site_fract_x
 _atom_site_fract_y
 _atom_site_fract_z
 _atom_site_occupancy
  Mg  Mg0  1  0.05970969  0.94029031  0.00000000  1
  H  H1  1  0.73149403  0.60420251  0.56562259  1
  H  H2  1  0.39579749  0.26850597  0.43437741  1
  O  O3  1  0.72778579  0.60740200  0.77449041  1
  O  O4  1  0.39259800  0.27221421  0.22550959  1
