# generated using pymatgen
data_SmPO4
_symmetry_space_group_name_H-M   'P 1'
_cell_length_a   6.89068807
_cell_length_b   6.35256873
_cell_length_c   8.04869237
_cell_angle_alpha   53.82260601
_cell_angle_beta   90.00000000
_cell_angle_gamma   90.00000000
_symmetry_Int_Tables_number   1
_chemical_formula_structural   SmPO4
_chemical_formula_sum   'Sm4 P4 O16'
_cell_volume   284.39033010
_cell_formula_units_Z   4
loop_
 _symmetry_equiv_pos_site_id
 _symmetry_equiv_pos_as_xyz
  1  'x, y, z'
loop_
 _atom_site_type_symbol
 _atom_site_label
 _atom_site_symmetry_multiplicity
 _atom_site_fract_x
 _atom_site_fract_y
 _atom_site_fract_z
 _atom_site_occupancy
  Sm  Sm0  1  0.65553151  0.18412794  0.21810179  1
  Sm  Sm1  1  0.15553151  0.81587206  0.28189821  1
  Sm  Sm2  1  0.34446849  0.81587206  0.78189821  1
  Sm  Sm3  1  0.84446849  0.18412794  0.71810179  1
  P  P4  1  0.66134327  0.68948304  0.19751307  1
  P  P5  1  0.16134327  0.31051696  0.30248693  1
  P  P6  1  0.33865673  0.31051696  0.80248693  1
  P  P7  1  0.83865673  0.68948304  0.69751307  1
  O  O8  1  0.71086166  0.41013425  0.37773501  1
  O  O9  1  0.21086166  0.58986575  0.12226499  1
  O  O10  1  0.28913834  0.58986575  0.62226499  1
  O  O11  1  0.78913834  0.41013425  0.87773501  1
  O  O12  1  0.60256184  0.66109563  0.02756884  1
  O  O13  1  0.10256184  0.33890437  0.47243116  1
  O  O14  1  0.39743816  0.33890437  0.97243116  1
  O  O15  1  0.89743816  0.66109563  0.52756884  1
  O  O16  1  0.99670672  0.81169075  0.74987064  1
  O  O17  1  0.49670672  0.18830925  0.75012936  1
  O  O18  1  0.00329328  0.18830925  0.25012936  1
  O  O19  1  0.50329328  0.81169075  0.24987064  1
  O  O20  1  0.66582175  0.88134281  0.61745850  1
  O  O21  1  0.16582175  0.11865719  0.88254150  1
  O  O22  1  0.33417825  0.11865719  0.38254150  1
  O  O23  1  0.83417825  0.88134281  0.11745850  1
