# generated using pymatgen
data_Ta9(FeS3)2
_symmetry_space_group_name_H-M   'P 1'
_cell_length_a   10.38314948
_cell_length_b   10.38314183
_cell_length_c   6.57049595
_cell_angle_alpha   90.00004295
_cell_angle_beta   90.00003929
_cell_angle_gamma   119.99993274
_symmetry_Int_Tables_number   1
_chemical_formula_structural   Ta9(FeS3)2
_chemical_formula_sum   'Ta18 Fe4 S12'
_cell_volume   613.46101746
_cell_formula_units_Z   2
loop_
 _symmetry_equiv_pos_site_id
 _symmetry_equiv_pos_as_xyz
  1  'x, y, z'
loop_
 _atom_site_type_symbol
 _atom_site_label
 _atom_site_symmetry_multiplicity
 _atom_site_fract_x
 _atom_site_fract_y
 _atom_site_fract_z
 _atom_site_occupancy
  Ta  Ta0  1  0.78208590  0.52640988  0.00001981  1
  Ta  Ta1  1  0.74431553  0.21790513  0.00002256  1
  Ta  Ta2  1  0.47358570  0.25567240  0.00002053  1
  Ta  Ta3  1  0.25570100  0.47359922  0.00001139  1
  Ta  Ta4  1  0.52640560  0.78210463  0.00001135  1
  Ta  Ta5  1  0.21791156  0.74430820  0.00000511  1
  Ta  Ta6  1  0.73421623  0.19050373  0.49998160  1
  Ta  Ta7  1  0.80949009  0.54371080  0.49997453  1
  Ta  Ta8  1  0.45628320  0.26577308  0.49997543  1
  Ta  Ta9  1  0.26578989  0.45629760  0.50000321  1
  Ta  Ta10  1  0.54370033  0.80949298  0.50000226  1
  Ta  Ta11  1  0.19051503  0.73421384  0.50000080  1
  Ta  Ta12  1  0.45973497  0.00000511  0.75375065  1
  Ta  Ta13  1  0.54028302  0.54027519  0.24624080  1
  Ta  Ta14  1  -0.00000964  0.45971705  0.24624159  1
  Ta  Ta15  1  -0.00000335  0.45972724  0.75375349  1
  Ta  Ta16  1  0.54027273  0.54027183  0.75375521  1
  Ta  Ta17  1  0.45972724  0.00000941  0.24624213  1
  Fe  Fe18  1  0.66665925  0.33331987  0.28440654  1
  Fe  Fe19  1  0.66665810  0.33332144  0.71557697  1
  Fe  Fe20  1  0.33334334  0.66667832  0.71557362  1
  Fe  Fe21  1  0.33334279  0.66667764  0.28442718  1
  S  S22  1  0.70077465  0.00000630  0.76593358  1
  S  S23  1  0.29923619  0.29923506  0.23407009  1
  S  S24  1  -0.00000021  0.70076492  0.23406812  1
  S  S25  1  -0.00000727  0.70077060  0.76593242  1
  S  S26  1  0.29923095  0.29922350  0.76593201  1
  S  S27  1  0.70076249  0.00000125  0.23406900  1
  S  S28  1  -0.00001850  0.27936521  0.49999335  1
  S  S29  1  0.72063406  0.72061782  0.49999387  1
  S  S30  1  0.27937884  0.00001549  0.49999414  1
  S  S31  1  -0.00002228  0.27630336  0.00000390  1
  S  S32  1  0.72369561  0.72367725  0.00000563  1
  S  S33  1  0.27632392  0.00002165  0.00000614  1
