# generated using pymatgen
data_Tm3Ga5
_symmetry_space_group_name_H-M   'P 1'
_cell_length_a   6.00450280
_cell_length_b   9.48572251
_cell_length_c   11.25817268
_cell_angle_alpha   90.00000000
_cell_angle_beta   90.00000000
_cell_angle_gamma   90.00000000
_symmetry_Int_Tables_number   1
_chemical_formula_structural   Tm3Ga5
_chemical_formula_sum   'Tm12 Ga20'
_cell_volume   641.23227465
_cell_formula_units_Z   4
loop_
 _symmetry_equiv_pos_site_id
 _symmetry_equiv_pos_as_xyz
  1  'x, y, z'
loop_
 _atom_site_type_symbol
 _atom_site_label
 _atom_site_symmetry_multiplicity
 _atom_site_fract_x
 _atom_site_fract_y
 _atom_site_fract_z
 _atom_site_occupancy
  Tm  Tm0  1  0.34881697  0.75000000  0.92440048  1
  Tm  Tm1  1  0.84881697  0.25000000  0.57559952  1
  Tm  Tm2  1  0.65118303  0.25000000  0.07559952  1
  Tm  Tm3  1  0.15118303  0.75000000  0.42440048  1
  Tm  Tm4  1  0.88972665  0.01007645  0.85178010  1
  Tm  Tm5  1  0.38972665  0.98992355  0.64821990  1
  Tm  Tm6  1  0.11027435  0.51007645  0.14821990  1
  Tm  Tm7  1  0.61027335  0.48992355  0.35178010  1
  Tm  Tm8  1  0.11027435  0.98992355  0.14821990  1
  Tm  Tm9  1  0.61027335  0.01007645  0.35178010  1
  Tm  Tm10  1  0.88972665  0.48992355  0.85178010  1
  Tm  Tm11  1  0.38972665  0.51007645  0.64821990  1
  Ga  Ga12  1  0.62666995  0.75000000  0.49453695  1
  Ga  Ga13  1  0.12666995  0.25000000  0.00546305  1
  Ga  Ga14  1  0.37333005  0.25000000  0.50546305  1
  Ga  Ga15  1  0.87333005  0.75000000  0.99453695  1
  Ga  Ga16  1  0.67574316  0.75000000  0.74759502  1
  Ga  Ga17  1  0.17574316  0.25000000  0.75240498  1
  Ga  Ga18  1  0.32425684  0.25000000  0.25240498  1
  Ga  Ga19  1  0.82425684  0.75000000  0.24759502  1
  Ga  Ga20  1  0.10166835  0.75000000  0.69921345  1
  Ga  Ga21  1  0.60166835  0.25000000  0.80078655  1
  Ga  Ga22  1  0.89833165  0.25000000  0.30078655  1
  Ga  Ga23  1  0.39833165  0.75000000  0.19921345  1
  Ga  Ga24  1  0.87355498  0.94676563  0.59057927  1
  Ga  Ga25  1  0.37355498  0.05323437  0.90942073  1
  Ga  Ga26  1  0.12644502  0.44676563  0.40942073  1
  Ga  Ga27  1  0.62644502  0.55323437  0.09057927  1
  Ga  Ga28  1  0.12644502  0.05323437  0.40942073  1
  Ga  Ga29  1  0.62644502  0.94676563  0.09057927  1
  Ga  Ga30  1  0.87355498  0.55323437  0.59057927  1
  Ga  Ga31  1  0.37355498  0.44676563  0.90942073  1
