# generated using pymatgen
data_Yb3Si5
_symmetry_space_group_name_H-M   'P 1'
_cell_length_a   6.47103419
_cell_length_b   6.47103419
_cell_length_c   4.07591490
_cell_angle_alpha   90.00000000
_cell_angle_beta   90.00000000
_cell_angle_gamma   120.00000737
_symmetry_Int_Tables_number   1
_chemical_formula_structural   Yb3Si5
_chemical_formula_sum   'Yb3 Si5'
_cell_volume   147.80975494
_cell_formula_units_Z   1
loop_
 _symmetry_equiv_pos_site_id
 _symmetry_equiv_pos_as_xyz
  1  'x, y, z'
loop_
 _atom_site_type_symbol
 _atom_site_label
 _atom_site_symmetry_multiplicity
 _atom_site_fract_x
 _atom_site_fract_y
 _atom_site_fract_z
 _atom_site_occupancy
  Yb  Yb0  1  0.00000000  0.64411477  0.00000000  1
  Yb  Yb1  1  0.35588523  0.35588523  0.00000000  1
  Yb  Yb2  1  0.64411477  0.00000000  0.00000000  1
  Si  Si3  1  0.66666700  0.33333300  0.50000000  1
  Si  Si4  1  0.33333300  0.66666700  0.50000000  1
  Si  Si5  1  0.00000000  0.26545409  0.50000000  1
  Si  Si6  1  0.26545409  0.00000000  0.50000000  1
  Si  Si7  1  0.73454591  0.73454591  0.50000000  1
