# generated using pymatgen
data_Dy5Ru2
_symmetry_space_group_name_H-M   'P 1'
_cell_length_a   6.33178326
_cell_length_b   7.22045874
_cell_length_c   8.45697491
_cell_angle_alpha   96.71124539
_cell_angle_beta   111.94904106
_cell_angle_gamma   90.00217892
_symmetry_Int_Tables_number   1
_chemical_formula_structural   Dy5Ru2
_chemical_formula_sum   'Dy10 Ru4'
_cell_volume   355.75559506
_cell_formula_units_Z   2
loop_
 _symmetry_equiv_pos_site_id
 _symmetry_equiv_pos_as_xyz
  1  'x, y, z'
loop_
 _atom_site_type_symbol
 _atom_site_label
 _atom_site_symmetry_multiplicity
 _atom_site_fract_x
 _atom_site_fract_y
 _atom_site_fract_z
 _atom_site_occupancy
  Dy  Dy0  1  0.97992527  0.41288256  0.18691483  1
  Dy  Dy1  1  0.79316786  0.08694003  0.81304650  1
  Dy  Dy2  1  0.35804170  0.68548884  0.56691957  1
  Dy  Dy3  1  0.79126692  0.81434070  0.43285314  1
  Dy  Dy4  1  0.64195830  0.31451116  0.43308043  1
  Dy  Dy5  1  0.20873308  0.18565930  0.56714686  1
  Dy  Dy6  1  0.20683214  0.91305997  0.18695350  1
  Dy  Dy7  1  0.02007473  0.58711744  0.81308517  1
  Dy  Dy8  1  0.42162511  0.25000209  0.00006055  1
  Dy  Dy9  1  0.57837489  0.74999791  0.99993945  1
  Ru  Ru10  1  0.60555663  0.42509446  0.77802004  1
  Ru  Ru11  1  0.82703174  0.07486676  0.22172613  1
  Ru  Ru12  1  0.39444437  0.57490554  0.22197996  1
  Ru  Ru13  1  0.17296826  0.92513324  0.77827387  1
