# generated using pymatgen
data_DyAlNi
_symmetry_space_group_name_H-M   'P 1'
_cell_length_a   6.90950996
_cell_length_b   6.90951050
_cell_length_c   3.87722454
_cell_angle_alpha   90.00000000
_cell_angle_beta   90.00000000
_cell_angle_gamma   120.00000718
_symmetry_Int_Tables_number   1
_chemical_formula_structural   DyAlNi
_chemical_formula_sum   'Dy3 Al3 Ni3'
_cell_volume   160.30463561
_cell_formula_units_Z   3
loop_
 _symmetry_equiv_pos_site_id
 _symmetry_equiv_pos_as_xyz
  1  'x, y, z'
loop_
 _atom_site_type_symbol
 _atom_site_label
 _atom_site_symmetry_multiplicity
 _atom_site_fract_x
 _atom_site_fract_y
 _atom_site_fract_z
 _atom_site_occupancy
  Dy  Dy0  1  -0.00000000  0.58226832  0.50000000  1
  Dy  Dy1  1  0.41773168  0.41773168  0.50000000  1
  Dy  Dy2  1  0.58226832  -0.00000000  0.50000000  1
  Al  Al3  1  0.76690253  0.76690253  0.00000000  1
  Al  Al4  1  0.23309747  0.00000000  0.00000000  1
  Al  Al5  1  0.00000000  0.23309747  -0.00000000  1
  Ni  Ni6  1  0.33333300  0.66666700  -0.00000000  1
  Ni  Ni7  1  0.66666700  0.33333300  -0.00000000  1
  Ni  Ni8  1  -0.00000000  -0.00000000  0.50000000  1
