# generated using pymatgen
data_SrAg2
_symmetry_space_group_name_H-M   'P 1'
_cell_length_a   4.76259114
_cell_length_b   6.16583700
_cell_length_c   6.16583828
_cell_angle_alpha   78.02338195
_cell_angle_beta   67.28121795
_cell_angle_gamma   67.28124582
_symmetry_Int_Tables_number   1
_chemical_formula_structural   SrAg2
_chemical_formula_sum   'Sr2 Ag4'
_cell_volume   153.69266379
_cell_formula_units_Z   2
loop_
 _symmetry_equiv_pos_site_id
 _symmetry_equiv_pos_as_xyz
  1  'x, y, z'
loop_
 _atom_site_type_symbol
 _atom_site_label
 _atom_site_symmetry_multiplicity
 _atom_site_fract_x
 _atom_site_fract_y
 _atom_site_fract_z
 _atom_site_occupancy
  Sr  Sr0  1  0.95498701  0.79501299  0.29501299  1
  Sr  Sr1  1  0.04501299  0.20498701  0.70498701  1
  Ag  Ag2  1  0.66231018  0.78309487  0.89228377  1
  Ag  Ag3  1  0.33768982  0.21690513  0.10771623  1
  Ag  Ag4  1  0.33768982  0.60771623  0.71690513  1
  Ag  Ag5  1  0.66231018  0.39228377  0.28309487  1
