# generated using pymatgen
data_VZn2O4
_symmetry_space_group_name_H-M   'P 1'
_cell_length_a   5.95176821
_cell_length_b   10.29504589
_cell_length_c   5.95247028
_cell_angle_alpha   73.58897542
_cell_angle_beta   120.48796212
_cell_angle_gamma   89.87388722
_symmetry_Int_Tables_number   1
_chemical_formula_structural   VZn2O4
_chemical_formula_sum   'V4 Zn8 O16'
_cell_volume   296.78621909
_cell_formula_units_Z   4
loop_
 _symmetry_equiv_pos_site_id
 _symmetry_equiv_pos_as_xyz
  1  'x, y, z'
loop_
 _atom_site_type_symbol
 _atom_site_label
 _atom_site_symmetry_multiplicity
 _atom_site_fract_x
 _atom_site_fract_y
 _atom_site_fract_z
 _atom_site_occupancy
  V  V0  1  0.56242191  0.81247862  0.12480489  1
  V  V1  1  0.56259697  0.31245212  0.62514430  1
  V  V2  1  0.06242190  0.31247516  0.12480747  1
  V  V3  1  0.06259400  0.81245658  0.62513671  1
  Zn  Zn4  1  0.49625193  0.49594944  0.00819959  1
  Zn  Zn5  1  0.99626919  0.99594223  0.00821852  1
  Zn  Zn6  1  0.62905040  0.12886675  0.24212729  1
  Zn  Zn7  1  0.12903229  0.62886631  0.24211012  1
  Zn  Zn8  1  0.06241401  0.31272533  0.62453770  1
  Zn  Zn9  1  0.56241167  0.81272623  0.62453057  1
  Zn  Zn10  1  0.31250434  0.06263524  0.62496766  1
  Zn  Zn11  1  0.81250037  0.56265166  0.62494822  1
  O  O12  1  0.96226060  0.20130632  0.35843899  1
  O  O13  1  0.46228711  0.70130287  0.35843430  1
  O  O14  1  0.44015494  0.20134301  0.83639772  1
  O  O15  1  0.94015568  0.70132016  0.83641369  1
  O  O16  1  0.68482921  0.42366800  0.41375484  1
  O  O17  1  0.18482873  0.92368856  0.41373906  1
  O  O18  1  0.16261208  0.42369879  0.89152943  1
  O  O19  1  0.66258445  0.92369935  0.89152825  1
  O  O20  1  0.20176399  0.42677788  0.37144616  1
  O  O21  1  0.70174781  0.92678710  0.37143788  1
  O  O22  1  0.69812358  0.42326462  0.87852488  1
  O  O23  1  0.19812792  0.92327684  0.87852111  1
  O  O24  1  0.42677778  0.20170248  0.37149933  1
  O  O25  1  0.92677865  0.70169019  0.37150052  1
  O  O26  1  0.92323953  0.19812716  0.87865041  1
  O  O27  1  0.42325295  0.69811803  0.87865236  1
