# generated using pymatgen
data_Ca3(PO4)2
_symmetry_space_group_name_H-M   'P 1'
_cell_length_a   6.89615019
_cell_length_b   6.89615098
_cell_length_c   6.89615141
_cell_angle_alpha   44.54431139
_cell_angle_beta   44.54430161
_cell_angle_gamma   44.54431058
_symmetry_Int_Tables_number   1
_chemical_formula_structural   Ca3(PO4)2
_chemical_formula_sum   'Ca3 P2 O8'
_cell_volume   146.73598514
_cell_formula_units_Z   1
loop_
 _symmetry_equiv_pos_site_id
 _symmetry_equiv_pos_as_xyz
  1  'x, y, z'
loop_
 _atom_site_type_symbol
 _atom_site_label
 _atom_site_symmetry_multiplicity
 _atom_site_fract_x
 _atom_site_fract_y
 _atom_site_fract_z
 _atom_site_occupancy
  Ca  Ca0  1  0.00000000  -0.00000000  0.00000000  1
  Ca  Ca1  1  0.20312251  0.20312251  0.20312251  1
  Ca  Ca2  1  0.79687749  0.79687749  0.79687749  1
  P  P3  1  0.40502234  0.40502234  0.40502234  1
  P  P4  1  0.59497766  0.59497766  0.59497766  1
  O  O5  1  0.72716678  0.72716678  0.24690282  1
  O  O6  1  0.72716678  0.24690282  0.72716678  1
  O  O7  1  0.24690282  0.72716678  0.72716678  1
  O  O8  1  0.75309718  0.27283322  0.27283322  1
  O  O9  1  0.27283322  0.27283322  0.75309718  1
  O  O10  1  0.32343945  0.32343945  0.32343945  1
  O  O11  1  0.67656055  0.67656055  0.67656055  1
  O  O12  1  0.27283322  0.75309718  0.27283322  1
