# generated using pymatgen
data_Cs2Mn3Se4
_symmetry_space_group_name_H-M   'P 1'
_cell_length_a   6.28157785
_cell_length_b   10.01198588
_cell_length_c   10.01198539
_cell_angle_alpha   74.69287725
_cell_angle_beta   71.71746453
_cell_angle_gamma   71.71747326
_symmetry_Int_Tables_number   1
_chemical_formula_structural   Cs2Mn3Se4
_chemical_formula_sum   'Cs4 Mn6 Se8'
_cell_volume   558.04311520
_cell_formula_units_Z   2
loop_
 _symmetry_equiv_pos_site_id
 _symmetry_equiv_pos_as_xyz
  1  'x, y, z'
loop_
 _atom_site_type_symbol
 _atom_site_label
 _atom_site_symmetry_multiplicity
 _atom_site_fract_x
 _atom_site_fract_y
 _atom_site_fract_z
 _atom_site_occupancy
  Cs  Cs0  1  0.23227863  0.11995195  0.88004805  1
  Cs  Cs1  1  0.73227863  0.38004805  0.61995195  1
  Cs  Cs2  1  0.26772137  0.61995195  0.38004805  1
  Cs  Cs3  1  0.76772137  0.88004805  0.11995195  1
  Mn  Mn4  1  0.25000000  0.52071330  0.97928670  1
  Mn  Mn5  1  0.25000000  0.97928670  0.52071330  1
  Mn  Mn6  1  0.75000000  0.47928670  0.02071330  1
  Mn  Mn7  1  0.75000000  0.75000000  0.75000000  1
  Mn  Mn8  1  0.25000000  0.25000000  0.25000000  1
  Mn  Mn9  1  0.75000000  0.02071330  0.47928670  1
  Se  Se10  1  0.37226933  0.21560146  0.48232966  1
  Se  Se11  1  0.57020044  0.28439854  0.01767034  1
  Se  Se12  1  0.12773067  0.01767034  0.28439854  1
  Se  Se13  1  0.92979956  0.48232966  0.21560146  1
  Se  Se14  1  0.62773067  0.78439854  0.51767034  1
  Se  Se15  1  0.42979956  0.71560146  0.98232966  1
  Se  Se16  1  0.87226933  0.98232966  0.71560146  1
  Se  Se17  1  0.07020044  0.51767034  0.78439854  1
