# generated using pymatgen
data_Na2BeF4
_symmetry_space_group_name_H-M   'P 1'
_cell_length_a   4.84992512
_cell_length_b   6.45599084
_cell_length_c   10.80226749
_cell_angle_alpha   90.00000000
_cell_angle_beta   90.00000000
_cell_angle_gamma   90.00000000
_symmetry_Int_Tables_number   1
_chemical_formula_structural   Na2BeF4
_chemical_formula_sum   'Na8 Be4 F16'
_cell_volume   338.23057676
_cell_formula_units_Z   4
loop_
 _symmetry_equiv_pos_site_id
 _symmetry_equiv_pos_as_xyz
  1  'x, y, z'
loop_
 _atom_site_type_symbol
 _atom_site_label
 _atom_site_symmetry_multiplicity
 _atom_site_fract_x
 _atom_site_fract_y
 _atom_site_fract_z
 _atom_site_occupancy
  Na  Na0  1  0.51296965  0.25000000  0.77791179  1
  Na  Na1  1  0.01296965  0.75000000  0.72208821  1
  Na  Na2  1  0.48703035  0.75000000  0.22208821  1
  Na  Na3  1  0.98703035  0.25000000  0.27791179  1
  Na  Na4  1  0.50000000  0.50000000  0.50000000  1
  Na  Na5  1  -0.00000000  0.50000000  -0.00000000  1
  Na  Na6  1  0.50000000  0.00000000  0.50000000  1
  Na  Na7  1  -0.00000000  0.00000000  -0.00000000  1
  Be  Be8  1  0.42693017  0.25000000  0.09558278  1
  Be  Be9  1  0.57306983  0.75000000  0.90441722  1
  Be  Be10  1  0.07306983  0.25000000  0.59558278  1
  Be  Be11  1  0.92693017  0.75000000  0.40441722  1
  F  F12  1  0.69852385  0.94412457  0.83882131  1
  F  F13  1  0.19852385  0.05587543  0.66117869  1
  F  F14  1  0.30147615  0.44412457  0.16117869  1
  F  F15  1  0.80147615  0.55587543  0.33882131  1
  F  F16  1  0.19852385  0.44412457  0.66117869  1
  F  F17  1  0.30147615  0.05587543  0.16117869  1
  F  F18  1  0.69852385  0.55587543  0.83882131  1
  F  F19  1  0.80147615  0.94412457  0.33882131  1
  F  F20  1  0.74534195  0.25000000  0.09373901  1
  F  F21  1  0.24534195  0.75000000  0.40626099  1
  F  F22  1  0.25465805  0.75000000  0.90626099  1
  F  F23  1  0.75465805  0.25000000  0.59373901  1
  F  F24  1  0.69503775  0.75000000  0.03910057  1
  F  F25  1  0.19503775  0.25000000  0.46089943  1
  F  F26  1  0.30496225  0.25000000  0.96089943  1
  F  F27  1  0.80496225  0.75000000  0.53910057  1
