# generated using pymatgen
data_BaCdBi2
_symmetry_space_group_name_H-M   'P 1'
_cell_length_a   4.73091394
_cell_length_b   4.73091393
_cell_length_c   12.85050212
_cell_angle_alpha   100.60798787
_cell_angle_beta   100.60799218
_cell_angle_gamma   89.98021500
_symmetry_Int_Tables_number   1
_chemical_formula_structural   BaCdBi2
_chemical_formula_sum   'Ba2 Cd2 Bi4'
_cell_volume   277.69975791
_cell_formula_units_Z   2
loop_
 _symmetry_equiv_pos_site_id
 _symmetry_equiv_pos_as_xyz
  1  'x, y, z'
loop_
 _atom_site_type_symbol
 _atom_site_label
 _atom_site_symmetry_multiplicity
 _atom_site_fract_x
 _atom_site_fract_y
 _atom_site_fract_z
 _atom_site_occupancy
  Ba  Ba0  1  0.88601359  0.88601365  0.77172515  1
  Ba  Ba1  1  0.11400187  0.11400193  0.22830283  1
  Cd  Cd2  1  0.24995785  0.75005128  0.49999349  1
  Cd  Cd3  1  0.75005125  0.24995798  0.49999348  1
  Bi  Bi4  1  0.00002109  0.50002513  0.00004109  1
  Bi  Bi5  1  0.67300339  0.67300356  0.34618434  1
  Bi  Bi6  1  0.50002680  0.00002222  0.00004109  1
  Bi  Bi7  1  0.32692416  0.32692426  0.65371853  1
