# generated using pymatgen
data_BeBr2
_symmetry_space_group_name_H-M   'P 1'
_cell_length_a   5.55742092
_cell_length_b   5.73313453
_cell_length_c   6.62745609
_cell_angle_alpha   115.62817643
_cell_angle_beta   114.78866134
_cell_angle_gamma   90.00000175
_symmetry_Int_Tables_number   1
_chemical_formula_structural   BeBr2
_chemical_formula_sum   'Be2 Br4'
_cell_volume   168.54893398
_cell_formula_units_Z   2
loop_
 _symmetry_equiv_pos_site_id
 _symmetry_equiv_pos_as_xyz
  1  'x, y, z'
loop_
 _atom_site_type_symbol
 _atom_site_label
 _atom_site_symmetry_multiplicity
 _atom_site_fract_x
 _atom_site_fract_y
 _atom_site_fract_z
 _atom_site_occupancy
  Be  Be0  1  0.25000000  -0.00000000  -0.00000000  1
  Be  Be1  1  0.75000000  -0.00000000  -0.00000000  1
  Br  Br2  1  0.11339244  0.32291007  0.22678487  1
  Br  Br3  1  0.88660756  0.67708993  0.77321513  1
  Br  Br4  1  0.38660756  0.09612520  0.77321513  1
  Br  Br5  1  0.61339244  0.90387480  0.22678487  1
