# generated using pymatgen
data_H3ClO
_symmetry_space_group_name_H-M   'P 1'
_cell_length_a   4.07365890
_cell_length_b   4.07365890
_cell_length_c   4.07365942
_cell_angle_alpha   72.46008270
_cell_angle_beta   72.46008270
_cell_angle_gamma   72.46007796
_symmetry_Int_Tables_number   1
_chemical_formula_structural   H3ClO
_chemical_formula_sum   'H3 Cl1 O1'
_cell_volume   59.79057643
_cell_formula_units_Z   1
loop_
 _symmetry_equiv_pos_site_id
 _symmetry_equiv_pos_as_xyz
  1  'x, y, z'
loop_
 _atom_site_type_symbol
 _atom_site_label
 _atom_site_symmetry_multiplicity
 _atom_site_fract_x
 _atom_site_fract_y
 _atom_site_fract_z
 _atom_site_occupancy
  H  H0  1  0.29896088  0.64566009  0.29896088  1
  H  H1  1  0.29896088  0.29896088  0.64566009  1
  H  H2  1  0.64566009  0.29896088  0.29896088  1
  Cl  Cl3  1  0.01010499  0.01010499  0.01010499  1
  O  O4  1  0.45031418  0.45031418  0.45031418  1
