# generated using pymatgen
data_Ca2FeReO6
_symmetry_space_group_name_H-M   'P 1'
_cell_length_a   5.38510141
_cell_length_b   9.47742997
_cell_length_c   9.47713667
_cell_angle_alpha   71.78998146
_cell_angle_beta   90.13026304
_cell_angle_gamma   90.12641162
_symmetry_Int_Tables_number   1
_chemical_formula_structural   Ca2FeReO6
_chemical_formula_sum   'Ca8 Fe4 Re4 O24'
_cell_volume   459.45798819
_cell_formula_units_Z   4
loop_
 _symmetry_equiv_pos_site_id
 _symmetry_equiv_pos_as_xyz
  1  'x, y, z'
loop_
 _atom_site_type_symbol
 _atom_site_label
 _atom_site_symmetry_multiplicity
 _atom_site_fract_x
 _atom_site_fract_y
 _atom_site_fract_z
 _atom_site_occupancy
  Ca  Ca0  1  0.01240285  0.15034058  0.09861997  1
  Ca  Ca1  1  0.01237771  0.65039458  0.59865002  1
  Ca  Ca2  1  0.48754772  0.40135422  0.84964681  1
  Ca  Ca3  1  0.48753221  0.90135167  0.34959384  1
  Ca  Ca4  1  0.98761714  0.84962843  0.90136822  1
  Ca  Ca5  1  0.98760664  0.34964016  0.40135769  1
  Ca  Ca6  1  0.51244132  0.59867107  0.15038637  1
  Ca  Ca7  1  0.51247455  0.09862095  0.65038448  1
  Fe  Fe8  1  0.00000463  0.74999775  0.25001035  1
  Fe  Fe9  1  0.50000550  0.74999961  0.74999894  1
  Fe  Fe10  1  -0.00000590  0.25000744  0.74999004  1
  Fe  Fe11  1  0.49999549  0.24999520  0.24999953  1
  Re  Re12  1  0.50003947  0.00000835  0.00000598  1
  Re  Re13  1  0.49996172  0.49999367  0.49999240  1
  Re  Re14  1  -0.00002610  0.49999381  -0.00002839  1
  Re  Re15  1  0.00002419  0.00000782  0.50002926  1
  O  O16  1  0.08536568  0.63535817  0.11011699  1
  O  O17  1  0.08539259  0.13532122  0.61011091  1
  O  O18  1  0.41459328  0.38990886  0.36466331  1
  O  O19  1  0.41461375  0.88988494  0.86468198  1
  O  O20  1  0.91461815  0.36465489  0.88990931  1
  O  O21  1  0.91462392  0.86466450  0.38986962  1
  O  O22  1  0.58537129  0.61009887  0.63533370  1
  O  O23  1  0.58542647  0.11010512  0.13531626  1
  O  O24  1  0.79237069  0.57809694  0.37745141  1
  O  O25  1  0.79242248  0.07806916  0.87748972  1
  O  O26  1  0.70758662  0.62253264  0.92189447  1
  O  O27  1  0.70759112  0.12251251  0.42190866  1
  O  O28  1  0.20759261  0.42192972  0.62252227  1
  O  O29  1  0.20762014  0.92190717  0.12252996  1
  O  O30  1  0.29239078  0.37746590  0.07809843  1
  O  O31  1  0.29242230  0.87748387  0.57810316  1
  O  O32  1  0.30307972  0.16816773  0.87750842  1
  O  O33  1  0.30305830  0.66820004  0.37748456  1
  O  O34  1  0.19691483  0.62250142  0.83181362  1
  O  O35  1  0.19694511  0.12248592  0.33178041  1
  O  O36  1  0.80303190  0.37751699  0.16818973  1
  O  O37  1  0.80309893  0.87749861  0.66821857  1
  O  O38  1  0.69697629  0.83182911  0.12249315  1
  O  O39  1  0.69689393  0.33180543  0.62250887  1
