# generated using pymatgen
data_ErPbAu
_symmetry_space_group_name_H-M   'P 1'
_cell_length_a   4.76802876
_cell_length_b   4.76802880
_cell_length_c   4.76802835
_cell_angle_alpha   59.99999615
_cell_angle_beta   59.99999584
_cell_angle_gamma   59.99999341
_symmetry_Int_Tables_number   1
_chemical_formula_structural   ErPbAu
_chemical_formula_sum   'Er1 Pb1 Au1'
_cell_volume   76.64812229
_cell_formula_units_Z   1
loop_
 _symmetry_equiv_pos_site_id
 _symmetry_equiv_pos_as_xyz
  1  'x, y, z'
loop_
 _atom_site_type_symbol
 _atom_site_label
 _atom_site_symmetry_multiplicity
 _atom_site_fract_x
 _atom_site_fract_y
 _atom_site_fract_z
 _atom_site_occupancy
  Er  Er0  1  0.50000000  0.50000000  0.50000000  1
  Pb  Pb1  1  0.00000000  0.00000000  -0.00000000  1
  Au  Au2  1  0.25000000  0.25000000  0.25000000  1
