# generated using pymatgen
data_Na3YCl6
_symmetry_space_group_name_H-M   'P 1'
_cell_length_a   7.25672994
_cell_length_b   6.77958059
_cell_length_c   12.06201811
_cell_angle_alpha   56.89766576
_cell_angle_beta   90.00000000
_cell_angle_gamma   90.00000000
_symmetry_Int_Tables_number   1
_chemical_formula_structural   Na3YCl6
_chemical_formula_sum   'Na6 Y2 Cl12'
_cell_volume   497.10765300
_cell_formula_units_Z   2
loop_
 _symmetry_equiv_pos_site_id
 _symmetry_equiv_pos_as_xyz
  1  'x, y, z'
loop_
 _atom_site_type_symbol
 _atom_site_label
 _atom_site_symmetry_multiplicity
 _atom_site_fract_x
 _atom_site_fract_y
 _atom_site_fract_z
 _atom_site_occupancy
  Na  Na0  1  0.50000000  0.50000000  0.50000000  1
  Na  Na1  1  -0.00000000  0.50000000  -0.00000000  1
  Na  Na2  1  0.91957331  0.28859009  0.74013458  1
  Na  Na3  1  0.41957331  0.71140991  0.75986542  1
  Na  Na4  1  0.08042669  0.71140991  0.25986542  1
  Na  Na5  1  0.58042669  0.28859009  0.24013458  1
  Y  Y6  1  -0.00000000  0.00000000  0.50000000  1
  Y  Y7  1  0.50000000  0.00000000  -0.00000000  1
  Cl  Cl8  1  0.93362431  0.09727071  0.25889508  1
  Cl  Cl9  1  0.30623737  0.25105312  0.41929037  1
  Cl  Cl10  1  0.80623737  0.74894688  0.08070963  1
  Cl  Cl11  1  0.69376263  0.74894688  0.58070963  1
  Cl  Cl12  1  0.32030281  0.61580434  0.06557079  1
  Cl  Cl13  1  0.82030281  0.38419566  0.43442921  1
  Cl  Cl14  1  0.67969719  0.38419566  0.93442921  1
  Cl  Cl15  1  0.17969719  0.61580434  0.56557079  1
  Cl  Cl16  1  0.06637569  0.90272929  0.74110492  1
  Cl  Cl17  1  0.56637569  0.09727071  0.75889508  1
  Cl  Cl18  1  0.19376263  0.25105312  0.91929037  1
  Cl  Cl19  1  0.43362431  0.90272929  0.24110492  1
