# generated using pymatgen
data_Ca(BO2)2
_symmetry_space_group_name_H-M   'P 1'
_cell_length_a   4.28918193
_cell_length_b   6.17830051
_cell_length_c   11.62599013
_cell_angle_alpha   90.00000000
_cell_angle_beta   90.00000000
_cell_angle_gamma   90.00000000
_symmetry_Int_Tables_number   1
_chemical_formula_structural   Ca(BO2)2
_chemical_formula_sum   'Ca4 B8 O16'
_cell_volume   308.08705158
_cell_formula_units_Z   4
loop_
 _symmetry_equiv_pos_site_id
 _symmetry_equiv_pos_as_xyz
  1  'x, y, z'
loop_
 _atom_site_type_symbol
 _atom_site_label
 _atom_site_symmetry_multiplicity
 _atom_site_fract_x
 _atom_site_fract_y
 _atom_site_fract_z
 _atom_site_occupancy
  Ca  Ca0  1  0.77194850  0.25000000  0.50000000  1
  Ca  Ca1  1  0.72805150  0.75000000  -0.00000000  1
  Ca  Ca2  1  0.22805150  0.75000000  0.50000000  1
  Ca  Ca3  1  0.27194850  0.25000000  -0.00000000  1
  B  B4  1  0.32866130  0.12674430  0.30760657  1
  B  B5  1  0.32866130  0.37325570  0.69239343  1
  B  B6  1  0.17133870  0.62674430  0.19239343  1
  B  B7  1  0.17133870  0.87325570  0.80760657  1
  B  B8  1  0.82866130  0.12674430  0.19239343  1
  B  B9  1  0.82866130  0.37325570  0.80760657  1
  B  B10  1  0.67133870  0.62674430  0.30760657  1
  B  B11  1  0.67133870  0.87325570  0.69239343  1
  O  O12  1  0.84830344  0.85036718  0.79184363  1
  O  O13  1  0.84830344  0.64963282  0.20815637  1
  O  O14  1  0.65169656  0.35036718  0.70815637  1
  O  O15  1  0.65169656  0.14963282  0.29184363  1
  O  O16  1  0.72835578  0.09143846  0.08638790  1
  O  O17  1  0.72835578  0.40856154  0.91361210  1
  O  O18  1  0.77164422  0.59143846  0.41361210  1
  O  O19  1  0.77164422  0.90856154  0.58638790  1
  O  O20  1  0.27164422  0.90856154  0.91361210  1
  O  O21  1  0.27164422  0.59143846  0.08638790  1
  O  O22  1  0.22835578  0.40856154  0.58638790  1
  O  O23  1  0.22835578  0.09143846  0.41361210  1
  O  O24  1  0.15169656  0.14963282  0.20815637  1
  O  O25  1  0.15169656  0.35036718  0.79184363  1
  O  O26  1  0.34830344  0.64963282  0.29184363  1
  O  O27  1  0.34830344  0.85036718  0.70815637  1
