# generated using pymatgen
data_CsB3O5
_symmetry_space_group_name_H-M   'P 1'
_cell_length_a   5.94401032
_cell_length_b   8.45836825
_cell_length_c   9.75181942
_cell_angle_alpha   90.00000000
_cell_angle_beta   90.00000000
_cell_angle_gamma   90.00000000
_symmetry_Int_Tables_number   1
_chemical_formula_structural   CsB3O5
_chemical_formula_sum   'Cs4 B12 O20'
_cell_volume   490.28859894
_cell_formula_units_Z   4
loop_
 _symmetry_equiv_pos_site_id
 _symmetry_equiv_pos_as_xyz
  1  'x, y, z'
loop_
 _atom_site_type_symbol
 _atom_site_label
 _atom_site_symmetry_multiplicity
 _atom_site_fract_x
 _atom_site_fract_y
 _atom_site_fract_z
 _atom_site_occupancy
  Cs  Cs0  1  0.50170467  0.73141319  0.63177418  1
  Cs  Cs1  1  0.00170467  0.76858681  0.36822582  1
  Cs  Cs2  1  0.49829533  0.23141319  0.86822582  1
  Cs  Cs3  1  0.99829533  0.26858681  0.13177418  1
  B  B4  1  0.92855954  0.35290276  0.64436870  1
  B  B5  1  0.42855954  0.14709724  0.35563130  1
  B  B6  1  0.07144046  0.85290276  0.85563130  1
  B  B7  1  0.57144046  0.64709724  0.14436870  1
  B  B8  1  0.96715559  0.57352493  0.80384328  1
  B  B9  1  0.46715559  0.92647507  0.19615672  1
  B  B10  1  0.73569592  0.12585216  0.53323183  1
  B  B11  1  0.23569592  0.37414784  0.46676817  1
  B  B12  1  0.26430408  0.62585216  0.96676817  1
  B  B13  1  0.76430408  0.87414784  0.03323183  1
  B  B14  1  0.03284441  0.07352493  0.69615672  1
  B  B15  1  0.53284441  0.42647507  0.30384328  1
  O  O16  1  0.82856844  0.46912880  0.73800639  1
  O  O17  1  0.25297791  0.78280283  0.93815694  1
  O  O18  1  0.24702209  0.21719717  0.43815694  1
  O  O19  1  0.75297791  0.71719717  0.06184306  1
  O  O20  1  0.45165124  0.76985707  0.22341686  1
  O  O21  1  0.95165124  0.73014293  0.77658314  1
  O  O22  1  0.54834876  0.26985707  0.27658314  1
  O  O23  1  0.04834876  0.23014293  0.72341686  1
  O  O24  1  0.62766389  0.98211869  0.10370513  1
  O  O25  1  0.12766389  0.51788131  0.89629487  1
  O  O26  1  0.37233611  0.48211869  0.39629487  1
  O  O27  1  0.87233611  0.01788131  0.60370513  1
  O  O28  1  0.17143156  0.96912880  0.76199361  1
  O  O29  1  0.67143156  0.53087120  0.23800639  1
  O  O30  1  0.09014928  0.43992798  0.55724477  1
  O  O31  1  0.59014928  0.06007202  0.44275523  1
  O  O32  1  0.90985072  0.93992798  0.94275523  1
  O  O33  1  0.40985072  0.56007202  0.05724477  1
  O  O34  1  0.74702209  0.28280283  0.56184306  1
  O  O35  1  0.32856844  0.03087120  0.26199361  1
