# generated using pymatgen
data_Ag3PSe4
_symmetry_space_group_name_H-M   'P 1'
_cell_length_a   6.83922998
_cell_length_b   7.20524313
_cell_length_c   8.05423423
_cell_angle_alpha   90.00000000
_cell_angle_beta   90.00000000
_cell_angle_gamma   90.00000000
_symmetry_Int_Tables_number   1
_chemical_formula_structural   Ag3PSe4
_chemical_formula_sum   'Ag6 P2 Se8'
_cell_volume   396.89909008
_cell_formula_units_Z   2
loop_
 _symmetry_equiv_pos_site_id
 _symmetry_equiv_pos_as_xyz
  1  'x, y, z'
loop_
 _atom_site_type_symbol
 _atom_site_label
 _atom_site_symmetry_multiplicity
 _atom_site_fract_x
 _atom_site_fract_y
 _atom_site_fract_z
 _atom_site_occupancy
  Ag  Ag0  1  0.02265255  0.80009849  0.27235174  1
  Ag  Ag1  1  0.52265255  0.19990151  0.22764826  1
  Ag  Ag2  1  0.52265255  0.19990151  0.77235174  1
  Ag  Ag3  1  0.02265255  0.80009849  0.72764826  1
  Ag  Ag4  1  0.96545264  0.35528293  0.00000000  1
  Ag  Ag5  1  0.46545264  0.64471707  0.50000000  1
  P  P6  1  0.99690847  0.31007062  0.50000000  1
  P  P7  1  0.49690847  0.68992938  0.00000000  1
  Se  Se8  1  0.89691524  0.15581385  0.72630703  1
  Se  Se9  1  0.39691524  0.84418615  0.77369297  1
  Se  Se10  1  0.36277117  0.40844307  0.00000000  1
  Se  Se11  1  0.86277117  0.59155693  0.50000000  1
  Se  Se12  1  0.39691524  0.84418615  0.22630703  1
  Se  Se13  1  0.89691524  0.15581385  0.27369297  1
  Se  Se14  1  0.32182415  0.30484160  0.50000000  1
  Se  Se15  1  0.82182415  0.69515840  0.00000000  1
