# generated using pymatgen
data_Y3Pb4F17
_symmetry_space_group_name_H-M   'P 1'
_cell_length_a   9.05285826
_cell_length_b   9.08304829
_cell_length_c   9.13224121
_cell_angle_alpha   72.85534527
_cell_angle_beta   72.87365146
_cell_angle_gamma   73.00891681
_symmetry_Int_Tables_number   1
_chemical_formula_structural   Y3Pb4F17
_chemical_formula_sum   'Y6 Pb8 F34'
_cell_volume   668.16171236
_cell_formula_units_Z   2
loop_
 _symmetry_equiv_pos_site_id
 _symmetry_equiv_pos_as_xyz
  1  'x, y, z'
loop_
 _atom_site_type_symbol
 _atom_site_label
 _atom_site_symmetry_multiplicity
 _atom_site_fract_x
 _atom_site_fract_y
 _atom_site_fract_z
 _atom_site_occupancy
  Y  Y0  1  0.46860469  0.15763361  0.61172687  1
  Y  Y1  1  0.60803215  0.47091282  0.16632286  1
  Y  Y2  1  0.84312482  0.38812372  0.53270673  1
  Y  Y3  1  0.18377083  0.60853249  0.46604828  1
  Y  Y4  1  0.38909435  0.53309208  0.83643813  1
  Y  Y5  1  0.52448861  0.81930639  0.39542762  1
  Pb  Pb6  1  0.89858226  0.03654665  0.30658004  1
  Pb  Pb7  1  0.26760741  0.25818009  0.26254708  1
  Pb  Pb8  1  0.04915269  0.30853139  0.89420759  1
  Pb  Pb9  1  0.70338206  0.09561436  0.96260226  1
  Pb  Pb10  1  0.31878075  0.89088146  0.04797175  1
  Pb  Pb11  1  0.95642892  0.68590768  0.11022749  1
  Pb  Pb12  1  0.74265638  0.73388829  0.73436851  1
  Pb  Pb13  1  0.11190509  0.94483367  0.68334053  1
  F  F14  1  0.98264068  0.00058304  0.01341990  1
  F  F15  1  0.45500759  0.02213778  0.17790092  1
  F  F16  1  0.14042903  0.13643217  0.13430367  1
  F  F17  1  0.35627261  0.04272603  0.49029248  1
  F  F18  1  0.02511800  0.17336276  0.45333759  1
  F  F19  1  0.25495105  0.07288348  0.79467161  1
  F  F20  1  0.54347678  0.26147024  0.34988592  1
  F  F21  1  0.78982977  0.25839979  0.08437371  1
  F  F22  1  0.49333841  0.35457511  0.04119004  1
  F  F23  1  0.17590348  0.45077713  0.02312209  1
  F  F24  1  0.25852761  0.34412252  0.54842706  1
  F  F25  1  0.69887265  0.20846000  0.59078998  1
  F  F26  1  0.04968924  0.48863401  0.35714650  1
  F  F27  1  0.39813328  0.30380510  0.79159962  1
  F  F28  1  0.34184831  0.55319991  0.23923983  1
  F  F29  1  0.92327383  0.20605378  0.74466728  1
  F  F30  1  0.79569656  0.41635630  0.29897808  1
  F  F31  1  0.19153446  0.60651795  0.70936189  1
  F  F32  1  0.45756065  0.56617706  0.46976083  1
  F  F33  1  0.07823985  0.78637047  0.25847794  1
  F  F34  1  0.65119517  0.45615184  0.73688980  1
  F  F35  1  0.59213449  0.71563044  0.18185539  1
  F  F36  1  0.96353856  0.50803924  0.64378577  1
  F  F37  1  0.27166383  0.83522517  0.39629903  1
  F  F38  1  0.74439124  0.65018934  0.45564862  1
  F  F39  1  0.82594446  0.54389938  0.97597874  1
  F  F40  1  0.51220361  0.64382515  0.95243924  1
  F  F41  1  0.20663831  0.74361516  0.92859338  1
  F  F42  1  0.44109455  0.75384907  0.66108151  1
  F  F43  1  0.73925906  0.91300649  0.21930484  1
  F  F44  1  0.97746532  0.82057683  0.54692653  1
  F  F45  1  0.64365052  0.95181641  0.51080142  1
  F  F46  1  0.86696016  0.85790360  0.86139331  1
  F  F47  1  0.54890389  0.97624457  0.82554672  1
