# generated using pymatgen
data_YAl4Ni
_symmetry_space_group_name_H-M   'P 1'
_cell_length_a   4.04823848
_cell_length_b   6.56212278
_cell_length_c   7.94007450
_cell_angle_alpha   90.00000000
_cell_angle_beta   104.76910132
_cell_angle_gamma   90.00000000
_symmetry_Int_Tables_number   1
_chemical_formula_structural   YAl4Ni
_chemical_formula_sum   'Y2 Al8 Ni2'
_cell_volume   203.95951872
_cell_formula_units_Z   2
loop_
 _symmetry_equiv_pos_site_id
 _symmetry_equiv_pos_as_xyz
  1  'x, y, z'
loop_
 _atom_site_type_symbol
 _atom_site_label
 _atom_site_symmetry_multiplicity
 _atom_site_fract_x
 _atom_site_fract_y
 _atom_site_fract_z
 _atom_site_occupancy
  Y  Y0  1  0.38253393  0.75000000  0.76506786  1
  Y  Y1  1  0.61746607  0.25000000  0.23493214  1
  Al  Al2  1  0.81053519  0.05327841  0.62107138  1
  Al  Al3  1  0.18946481  0.94672159  0.37892862  1
  Al  Al4  1  0.18946481  0.55327841  0.37892862  1
  Al  Al5  1  0.81053519  0.44672159  0.62107138  1
  Al  Al6  1  -0.00000000  0.50000000  -0.00000000  1
  Al  Al7  1  -0.00000000  -0.00000000  -0.00000000  1
  Al  Al8  1  0.42290441  0.25000000  0.84580681  1
  Al  Al9  1  0.57709559  0.75000000  0.15419319  1
  Ni  Ni10  1  0.27374069  0.25000000  0.54748139  1
  Ni  Ni11  1  0.72625931  0.75000000  0.45251861  1
