# generated using pymatgen
data_TmCu5
_symmetry_space_group_name_H-M   'P 1'
_cell_length_a   4.88858885
_cell_length_b   4.88858916
_cell_length_c   4.88858928
_cell_angle_alpha   59.99998550
_cell_angle_beta   59.99998345
_cell_angle_gamma   59.99997189
_symmetry_Int_Tables_number   1
_chemical_formula_structural   TmCu5
_chemical_formula_sum   'Tm1 Cu5'
_cell_volume   82.61053076
_cell_formula_units_Z   1
loop_
 _symmetry_equiv_pos_site_id
 _symmetry_equiv_pos_as_xyz
  1  'x, y, z'
loop_
 _atom_site_type_symbol
 _atom_site_label
 _atom_site_symmetry_multiplicity
 _atom_site_fract_x
 _atom_site_fract_y
 _atom_site_fract_z
 _atom_site_occupancy
  Tm  Tm0  1  -0.00000000  0.00000000  -0.00000000  1
  Cu  Cu1  1  0.25000000  0.25000000  0.25000000  1
  Cu  Cu2  1  0.62407946  0.62407946  0.62407946  1
  Cu  Cu3  1  0.62407946  0.62407946  0.12776161  1
  Cu  Cu4  1  0.12776161  0.62407946  0.62407946  1
  Cu  Cu5  1  0.62407946  0.12776161  0.62407946  1
