# generated using pymatgen
data_Tl(MoSe)3
_symmetry_space_group_name_H-M   'P 1'
_cell_length_a   9.15164475
_cell_length_b   9.15164506
_cell_length_c   4.49834710
_cell_angle_alpha   90.00000000
_cell_angle_beta   90.00000000
_cell_angle_gamma   119.99999034
_symmetry_Int_Tables_number   1
_chemical_formula_structural   Tl(MoSe)3
_chemical_formula_sum   'Tl2 Mo6 Se6'
_cell_volume   326.27361769
_cell_formula_units_Z   2
loop_
 _symmetry_equiv_pos_site_id
 _symmetry_equiv_pos_as_xyz
  1  'x, y, z'
loop_
 _atom_site_type_symbol
 _atom_site_label
 _atom_site_symmetry_multiplicity
 _atom_site_fract_x
 _atom_site_fract_y
 _atom_site_fract_z
 _atom_site_occupancy
  Tl  Tl0  1  0.33333300  0.66666700  0.75000000  1
  Tl  Tl1  1  0.66666700  0.33333300  0.25000000  1
  Mo  Mo2  1  0.96813817  0.81994531  0.25000000  1
  Mo  Mo3  1  0.81994531  0.85180714  0.75000000  1
  Mo  Mo4  1  0.03186183  0.18005469  0.75000000  1
  Mo  Mo5  1  0.18005469  0.14819286  0.25000000  1
  Mo  Mo6  1  0.85180714  0.03186183  0.25000000  1
  Mo  Mo7  1  0.14819286  0.96813817  0.75000000  1
  Se  Se8  1  0.93473049  0.64010264  0.75000000  1
  Se  Se9  1  0.29462685  0.93473049  0.25000000  1
  Se  Se10  1  0.70537315  0.06526951  0.75000000  1
  Se  Se11  1  0.06526951  0.35989736  0.25000000  1
  Se  Se12  1  0.64010264  0.70537315  0.25000000  1
  Se  Se13  1  0.35989736  0.29462685  0.75000000  1
