# generated using pymatgen
data_BaUS3
_symmetry_space_group_name_H-M   'P 1'
_cell_length_a   7.29081320
_cell_length_b   7.52588778
_cell_length_c   10.41371308
_cell_angle_alpha   90.00000000
_cell_angle_beta   90.00000000
_cell_angle_gamma   90.00000000
_symmetry_Int_Tables_number   1
_chemical_formula_structural   BaUS3
_chemical_formula_sum   'Ba4 U4 S12'
_cell_volume   571.39879100
_cell_formula_units_Z   4
loop_
 _symmetry_equiv_pos_site_id
 _symmetry_equiv_pos_as_xyz
  1  'x, y, z'
loop_
 _atom_site_type_symbol
 _atom_site_label
 _atom_site_symmetry_multiplicity
 _atom_site_fract_x
 _atom_site_fract_y
 _atom_site_fract_z
 _atom_site_occupancy
  Ba  Ba0  1  0.98304555  0.05881894  0.25000000  1
  Ba  Ba1  1  0.48304555  0.44118106  0.75000000  1
  Ba  Ba2  1  0.51695445  0.55881894  0.25000000  1
  Ba  Ba3  1  0.01695445  0.94118106  0.75000000  1
  U  U4  1  0.50000000  -0.00000000  0.00000000  1
  U  U5  1  0.00000000  0.50000000  0.00000000  1
  U  U6  1  0.00000000  0.50000000  0.50000000  1
  U  U7  1  0.50000000  -0.00000000  0.50000000  1
  S  S8  1  0.70725851  0.29681471  0.45442355  1
  S  S9  1  0.20725851  0.20318529  0.54557645  1
  S  S10  1  0.79274149  0.79681471  0.04557645  1
  S  S11  1  0.29274149  0.70318529  0.95442355  1
  S  S12  1  0.29274149  0.70318529  0.54557645  1
  S  S13  1  0.79274149  0.79681471  0.45442355  1
  S  S14  1  0.20725851  0.20318529  0.95442355  1
  S  S15  1  0.70725851  0.29681471  0.04557645  1
  S  S16  1  0.08691578  0.48031470  0.25000000  1
  S  S17  1  0.58691578  0.01968530  0.75000000  1
  S  S18  1  0.41308422  0.98031470  0.25000000  1
  S  S19  1  0.91308422  0.51968530  0.75000000  1
