# generated using pymatgen
data_PrSnAu
_symmetry_space_group_name_H-M   'P 1'
_cell_length_a   4.75955361
_cell_length_b   4.75955431
_cell_length_c   7.80346909
_cell_angle_alpha   90.00000000
_cell_angle_beta   90.00000000
_cell_angle_gamma   120.00000218
_symmetry_Int_Tables_number   1
_chemical_formula_structural   PrSnAu
_chemical_formula_sum   'Pr2 Sn2 Au2'
_cell_volume   153.09141813
_cell_formula_units_Z   2
loop_
 _symmetry_equiv_pos_site_id
 _symmetry_equiv_pos_as_xyz
  1  'x, y, z'
loop_
 _atom_site_type_symbol
 _atom_site_label
 _atom_site_symmetry_multiplicity
 _atom_site_fract_x
 _atom_site_fract_y
 _atom_site_fract_z
 _atom_site_occupancy
  Pr  Pr0  1  -0.00000000  -0.00000000  0.24780590  1
  Pr  Pr1  1  -0.00000000  -0.00000000  0.74780590  1
  Sn  Sn2  1  0.66666700  0.33333300  0.97295624  1
  Sn  Sn3  1  0.33333300  0.66666700  0.47295624  1
  Au  Au4  1  0.33333300  0.66666700  0.06153787  1
  Au  Au5  1  0.66666700  0.33333300  0.56153787  1
