# generated using pymatgen
data_CoGeTe
_symmetry_space_group_name_H-M   'P 1'
_cell_length_a   6.16584877
_cell_length_b   6.20895871
_cell_length_c   11.11329482
_cell_angle_alpha   90.00000000
_cell_angle_beta   90.00000000
_cell_angle_gamma   90.00000000
_symmetry_Int_Tables_number   1
_chemical_formula_structural   CoGeTe
_chemical_formula_sum   'Co8 Ge8 Te8'
_cell_volume   425.45582697
_cell_formula_units_Z   8
loop_
 _symmetry_equiv_pos_site_id
 _symmetry_equiv_pos_as_xyz
  1  'x, y, z'
loop_
 _atom_site_type_symbol
 _atom_site_label
 _atom_site_symmetry_multiplicity
 _atom_site_fract_x
 _atom_site_fract_y
 _atom_site_fract_z
 _atom_site_occupancy
  Co  Co0  1  0.99972128  0.61012931  0.11099640  1
  Co  Co1  1  0.49972128  0.88987069  0.88900360  1
  Co  Co2  1  0.00027872  0.11012931  0.38900360  1
  Co  Co3  1  0.50027872  0.38987069  0.61099640  1
  Co  Co4  1  0.00027872  0.38987069  0.88900360  1
  Co  Co5  1  0.50027872  0.11012931  0.11099640  1
  Co  Co6  1  0.99972128  0.88987069  0.61099640  1
  Co  Co7  1  0.49972128  0.61012931  0.38900360  1
  Ge  Ge8  1  0.66319019  0.27428175  0.43150495  1
  Ge  Ge9  1  0.16319019  0.22571825  0.56849505  1
  Ge  Ge10  1  0.33680981  0.77428175  0.06849505  1
  Ge  Ge11  1  0.83680981  0.72571825  0.93150495  1
  Ge  Ge12  1  0.33680981  0.72571825  0.56849505  1
  Ge  Ge13  1  0.83680981  0.77428175  0.43150495  1
  Ge  Ge14  1  0.66319019  0.22571825  0.93150495  1
  Ge  Ge15  1  0.16319019  0.27428175  0.06849505  1
  Te  Te16  1  0.61819511  0.49006272  0.17519822  1
  Te  Te17  1  0.11819511  0.00993728  0.82480178  1
  Te  Te18  1  0.38180489  0.99006272  0.32480178  1
  Te  Te19  1  0.88180489  0.50993728  0.67519822  1
  Te  Te20  1  0.38180489  0.50993728  0.82480178  1
  Te  Te21  1  0.88180489  0.99006272  0.17519822  1
  Te  Te22  1  0.61819511  0.00993728  0.67519822  1
  Te  Te23  1  0.11819511  0.49006272  0.32480178  1
