# generated using pymatgen
data_TbAgSn
_symmetry_space_group_name_H-M   'P 1'
_cell_length_a   4.70786159
_cell_length_b   4.70786163
_cell_length_c   7.44428890
_cell_angle_alpha   90.00000000
_cell_angle_beta   90.00000000
_cell_angle_gamma   120.00000681
_symmetry_Int_Tables_number   1
_chemical_formula_structural   TbAgSn
_chemical_formula_sum   'Tb2 Ag2 Sn2'
_cell_volume   142.88978971
_cell_formula_units_Z   2
loop_
 _symmetry_equiv_pos_site_id
 _symmetry_equiv_pos_as_xyz
  1  'x, y, z'
loop_
 _atom_site_type_symbol
 _atom_site_label
 _atom_site_symmetry_multiplicity
 _atom_site_fract_x
 _atom_site_fract_y
 _atom_site_fract_z
 _atom_site_occupancy
  Tb  Tb0  1  -0.00000000  -0.00000000  0.72591473  1
  Tb  Tb1  1  -0.00000000  -0.00000000  0.22591473  1
  Ag  Ag2  1  0.66666700  0.33333300  0.54033502  1
  Ag  Ag3  1  0.33333300  0.66666700  0.04033502  1
  Sn  Sn4  1  0.33333300  0.66666700  0.44574925  1
  Sn  Sn5  1  0.66666700  0.33333300  0.94574925  1
