# generated using pymatgen
data_Tb2Zn17
_symmetry_space_group_name_H-M   'P 1'
_cell_length_a   8.85822938
_cell_length_b   8.85822922
_cell_length_c   8.66445655
_cell_angle_alpha   90.00000000
_cell_angle_beta   90.00000000
_cell_angle_gamma   120.00000060
_symmetry_Int_Tables_number   1
_chemical_formula_structural   Tb2Zn17
_chemical_formula_sum   'Tb4 Zn34'
_cell_volume   588.79727759
_cell_formula_units_Z   2
loop_
 _symmetry_equiv_pos_site_id
 _symmetry_equiv_pos_as_xyz
  1  'x, y, z'
loop_
 _atom_site_type_symbol
 _atom_site_label
 _atom_site_symmetry_multiplicity
 _atom_site_fract_x
 _atom_site_fract_y
 _atom_site_fract_z
 _atom_site_occupancy
  Tb  Tb0  1  0.66666700  0.33333300  0.25000000  1
  Tb  Tb1  1  0.33333300  0.66666700  0.75000000  1
  Tb  Tb2  1  0.00000000  -0.00000000  0.75000000  1
  Tb  Tb3  1  0.00000000  -0.00000000  0.25000000  1
  Zn  Zn4  1  0.16205253  0.83794747  0.52034891  1
  Zn  Zn5  1  0.16205253  0.32410405  0.52034891  1
  Zn  Zn6  1  0.67589595  0.83794747  0.52034891  1
  Zn  Zn7  1  0.32410405  0.16205253  0.02034891  1
  Zn  Zn8  1  0.33333300  0.66666700  0.10243078  1
  Zn  Zn9  1  0.66666700  0.33333300  0.60243078  1
  Zn  Zn10  1  0.66666700  0.33333300  0.89756922  1
  Zn  Zn11  1  0.33333300  0.66666700  0.39756922  1
  Zn  Zn12  1  0.50000000  -0.00000000  0.00000000  1
  Zn  Zn13  1  0.50000000  0.50000000  0.50000000  1
  Zn  Zn14  1  0.00000000  0.50000000  0.50000000  1
  Zn  Zn15  1  0.00000000  0.50000000  0.00000000  1
  Zn  Zn16  1  0.50000000  0.50000000  0.00000000  1
  Zn  Zn17  1  0.50000000  -0.00000000  0.50000000  1
  Zn  Zn18  1  0.32907464  0.95966418  0.25000000  1
  Zn  Zn19  1  0.36941046  0.32907464  0.75000000  1
  Zn  Zn20  1  0.95966418  0.63058954  0.75000000  1
  Zn  Zn21  1  0.04033582  0.36941046  0.25000000  1
  Zn  Zn22  1  0.63058954  0.67092536  0.25000000  1
  Zn  Zn23  1  0.36941046  0.04033582  0.75000000  1
  Zn  Zn24  1  0.67092536  0.63058954  0.75000000  1
  Zn  Zn25  1  0.67092536  0.04033582  0.75000000  1
  Zn  Zn26  1  0.95966418  0.32907464  0.75000000  1
  Zn  Zn27  1  0.04033582  0.67092536  0.25000000  1
  Zn  Zn28  1  0.63058954  0.95966418  0.25000000  1
  Zn  Zn29  1  0.32907464  0.36941046  0.25000000  1
  Zn  Zn30  1  0.16205253  0.32410405  0.97965109  1
  Zn  Zn31  1  0.83794747  0.16205253  0.47965109  1
  Zn  Zn32  1  0.32410405  0.16205253  0.47965109  1
  Zn  Zn33  1  0.67589595  0.83794747  0.97965109  1
  Zn  Zn34  1  0.16205253  0.83794747  0.97965109  1
  Zn  Zn35  1  0.83794747  0.67589595  0.02034891  1
  Zn  Zn36  1  0.83794747  0.16205253  0.02034891  1
  Zn  Zn37  1  0.83794747  0.67589595  0.47965109  1
