# generated using pymatgen
data_Hg4OF6
_symmetry_space_group_name_H-M   'P 1'
_cell_length_a   7.78810125
_cell_length_b   7.78810139
_cell_length_c   6.06036332
_cell_angle_alpha   90.00000019
_cell_angle_beta   89.99999972
_cell_angle_gamma   120.00018925
_symmetry_Int_Tables_number   1
_chemical_formula_structural   Hg4OF6
_chemical_formula_sum   'Hg8 O2 F12'
_cell_volume   318.34032112
_cell_formula_units_Z   2
loop_
 _symmetry_equiv_pos_site_id
 _symmetry_equiv_pos_as_xyz
  1  'x, y, z'
loop_
 _atom_site_type_symbol
 _atom_site_label
 _atom_site_symmetry_multiplicity
 _atom_site_fract_x
 _atom_site_fract_y
 _atom_site_fract_z
 _atom_site_occupancy
  Hg  Hg0  1  0.63562097  0.81780991  0.50108915  1
  Hg  Hg1  1  0.81780986  0.63562089  0.00108923  1
  Hg  Hg2  1  0.81780884  0.18219123  0.00109087  1
  Hg  Hg3  1  0.18219115  0.81780881  0.50109080  1
  Hg  Hg4  1  0.18218998  0.36437906  0.50108918  1
  Hg  Hg5  1  0.36437913  0.18219007  0.00108917  1
  Hg  Hg6  1  0.33333335  0.66666663  0.97590445  1
  Hg  Hg7  1  0.66666669  0.33333338  0.47590443  1
  O  O8  1  0.66666484  0.33333515  0.12666861  1
  O  O9  1  0.33333516  0.66666484  0.62666862  1
  F  F10  1  0.92374837  0.46187407  0.72584402  1
  F  F11  1  0.07625157  0.53812591  0.22584391  1
  F  F12  1  0.46187367  0.53812636  0.22584431  1
  F  F13  1  0.53812597  0.07625164  0.72584401  1
  F  F14  1  0.74606792  0.87303363  0.89584223  1
  F  F15  1  0.87303356  0.74606775  0.39584178  1
  F  F16  1  0.46187409  0.92374839  0.22584394  1
  F  F17  1  0.53812635  0.46187364  0.72584440  1
  F  F18  1  0.25393226  0.12696645  0.39584185  1
  F  F19  1  0.12696634  0.25393208  0.89584225  1
  F  F20  1  0.12696563  0.87303435  0.89584211  1
  F  F21  1  0.87303430  0.12696574  0.39584168  1
