# generated using pymatgen
data_HfF4
_symmetry_space_group_name_H-M   'P 1'
_cell_length_a   7.63091756
_cell_length_b   7.63898468
_cell_length_c   7.63898359
_cell_angle_alpha   80.30151597
_cell_angle_beta   63.20638930
_cell_angle_gamma   63.20637437
_symmetry_Int_Tables_number   1
_chemical_formula_structural   HfF4
_chemical_formula_sum   'Hf6 F24'
_cell_volume   354.47343423
_cell_formula_units_Z   6
loop_
 _symmetry_equiv_pos_site_id
 _symmetry_equiv_pos_as_xyz
  1  'x, y, z'
loop_
 _atom_site_type_symbol
 _atom_site_label
 _atom_site_symmetry_multiplicity
 _atom_site_fract_x
 _atom_site_fract_y
 _atom_site_fract_z
 _atom_site_occupancy
  Hf  Hf0  1  0.25000000  0.21412777  0.78587223  1
  Hf  Hf1  1  0.75000000  0.78587223  0.21412777  1
  Hf  Hf2  1  0.16647173  0.77685535  0.63424177  1
  Hf  Hf3  1  0.33352827  0.36575823  0.22314465  1
  Hf  Hf4  1  0.83352827  0.22314465  0.36575723  1
  Hf  Hf5  1  0.66647173  0.63424177  0.77685535  1
  F  F6  1  0.39335676  0.68279756  0.74193764  1
  F  F7  1  0.10664324  0.25806236  0.31720344  1
  F  F8  1  0.60664324  0.31720344  0.25806236  1
  F  F9  1  0.89335676  0.74193764  0.68279756  1
  F  F10  1  0.57532738  0.18313963  0.59852471  1
  F  F11  1  0.92467262  0.40147529  0.81686037  1
  F  F12  1  0.75000000  0.39330375  0.60669625  1
  F  F13  1  0.25000000  0.60669625  0.39330375  1
  F  F14  1  0.71691332  0.73938819  0.49792343  1
  F  F15  1  0.78308668  0.50207657  0.26061181  1
  F  F16  1  0.28308668  0.26061181  0.50207657  1
  F  F17  1  0.21691332  0.49792343  0.73938819  1
  F  F18  1  0.85039534  0.96970536  0.27636150  1
  F  F19  1  0.64960466  0.72363850  0.03029464  1
  F  F20  1  0.14960466  0.03029464  0.72363850  1
  F  F21  1  0.35039534  0.27636150  0.96970536  1
  F  F22  1  -0.00000000  0.00000000  0.50000000  1
  F  F23  1  0.50000000  0.50000000  0.00000000  1
  F  F24  1  0.95569420  0.82875857  0.93686031  1
  F  F25  1  0.54430580  0.06313969  0.17124143  1
  F  F26  1  0.04430580  0.17124143  0.06313969  1
  F  F27  1  0.45569420  0.93686031  0.82875857  1
  F  F28  1  0.07532738  0.59852471  0.18313963  1
  F  F29  1  0.42467262  0.81686037  0.40147529  1
