# generated using pymatgen
data_Na2S2O7
_symmetry_space_group_name_H-M   'P 1'
_cell_length_a   6.71922703
_cell_length_b   6.76965335
_cell_length_c   6.80806680
_cell_angle_alpha   83.71513397
_cell_angle_beta   63.18790110
_cell_angle_gamma   83.45698444
_symmetry_Int_Tables_number   1
_chemical_formula_structural   Na2S2O7
_chemical_formula_sum   'Na4 S4 O14'
_cell_volume   273.99442223
_cell_formula_units_Z   2
loop_
 _symmetry_equiv_pos_site_id
 _symmetry_equiv_pos_as_xyz
  1  'x, y, z'
loop_
 _atom_site_type_symbol
 _atom_site_label
 _atom_site_symmetry_multiplicity
 _atom_site_fract_x
 _atom_site_fract_y
 _atom_site_fract_z
 _atom_site_occupancy
  Na  Na0  1  0.77369445  0.86345535  0.17589806  1
  Na  Na1  1  0.22630555  0.13654465  0.82410194  1
  Na  Na2  1  0.38276609  0.33445954  0.24298953  1
  Na  Na3  1  0.61723391  0.66554046  0.75701047  1
  S  S4  1  0.26801153  0.84127308  0.25073672  1
  S  S5  1  0.73198847  0.15872692  0.74926328  1
  S  S6  1  0.14140832  0.63905089  0.68818361  1
  S  S7  1  0.85859168  0.36094911  0.31181639  1
  O  O8  1  0.23707849  0.44494764  0.60782210  1
  O  O9  1  0.76292151  0.55505236  0.39217790  1
  O  O10  1  0.70892080  0.24213637  0.28579411  1
  O  O11  1  0.29107920  0.75786363  0.71420589  1
  O  O12  1  0.91719892  0.64090157  0.86385514  1
  O  O13  1  0.08280108  0.35909843  0.13614486  1
  O  O14  1  0.08525973  0.76029562  0.49024853  1
  O  O15  1  0.91474027  0.23970438  0.50975147  1
  O  O16  1  0.38367919  0.99061424  0.28710417  1
  O  O17  1  0.61632081  0.00938576  0.71289583  1
  O  O18  1  0.58174781  0.32853368  0.85017567  1
  O  O19  1  0.41825219  0.67146632  0.14982433  1
  O  O20  1  0.87557918  0.08231161  0.84967163  1
  O  O21  1  0.12442082  0.91768839  0.15032837  1
