# generated using pymatgen
data_Mn4Nb2O9
_symmetry_space_group_name_H-M   'P 1'
_cell_length_a   5.29740804
_cell_length_b   14.35623460
_cell_length_c   5.29741313
_cell_angle_alpha   90.00004999
_cell_angle_beta   119.99963830
_cell_angle_gamma   90.00004803
_symmetry_Int_Tables_number   1
_chemical_formula_structural   Mn4Nb2O9
_chemical_formula_sum   'Mn8 Nb4 O18'
_cell_volume   348.89924604
_cell_formula_units_Z   2
loop_
 _symmetry_equiv_pos_site_id
 _symmetry_equiv_pos_as_xyz
  1  'x, y, z'
loop_
 _atom_site_type_symbol
 _atom_site_label
 _atom_site_symmetry_multiplicity
 _atom_site_fract_x
 _atom_site_fract_y
 _atom_site_fract_z
 _atom_site_occupancy
  Mn  Mn0  1  0.33333171  0.69712021  0.66666622  1
  Mn  Mn1  1  0.33333515  0.19708403  0.66666823  1
  Mn  Mn2  1  0.33334008  0.98354501  0.66666966  1
  Mn  Mn3  1  0.33333020  0.48358565  0.66666341  1
  Mn  Mn4  1  0.66666534  0.80288697  0.33333111  1
  Mn  Mn5  1  0.66666866  0.30289499  0.33333469  1
  Mn  Mn6  1  0.66666929  0.51644917  0.33333839  1
  Mn  Mn7  1  0.66666325  0.01641706  0.33332935  1
  Nb  Nb8  1  -0.00000226  0.85823898  -0.00000459  1
  Nb  Nb9  1  -0.00000175  0.64176897  0.00000116  1
  Nb  Nb10  1  0.00000327  0.14177496  0.00000166  1
  Nb  Nb11  1  0.00000063  0.35822640  0.00000148  1
  O  O12  1  0.28270605  0.75000504  0.28270983  1
  O  O13  1  0.71728452  0.75000521  -0.00000591  1
  O  O14  1  0.00000001  0.75000478  0.71728796  1
  O  O15  1  0.71727923  0.24999602  0.71728180  1
  O  O16  1  0.28272425  0.24999579  -0.00000047  1
  O  O17  1  0.00000624  0.24999592  0.28272677  1
  O  O18  1  0.65861002  0.58485532  0.68398285  1
  O  O19  1  0.02536778  0.58485548  0.34138942  1
  O  O20  1  0.31601542  0.58485505  0.97462954  1
  O  O21  1  0.34138477  0.91515289  0.02536286  1
  O  O22  1  0.97463060  0.91515291  0.31601454  1
  O  O23  1  0.68397886  0.91515335  0.65861005  1
  O  O24  1  0.31598680  0.08483205  0.34136115  1
  O  O25  1  0.02537715  0.08483249  0.68401500  1
  O  O26  1  0.65864141  0.08483272  0.97462648  1
  O  O27  1  0.68401466  0.41516211  0.02537951  1
  O  O28  1  0.97462627  0.41516207  0.65863919  1
  O  O29  1  0.34136339  0.41516240  0.31598767  1
