# generated using pymatgen
data_Na2BeF4
_symmetry_space_group_name_H-M   'P 1'
_cell_length_a   7.91401356
_cell_length_b   5.50453165
_cell_length_c   8.73089148
_cell_angle_alpha   61.61105424
_cell_angle_beta   90.00000000
_cell_angle_gamma   90.00000000
_symmetry_Int_Tables_number   1
_chemical_formula_structural   Na2BeF4
_chemical_formula_sum   'Na8 Be4 F16'
_cell_volume   334.60332356
_cell_formula_units_Z   4
loop_
 _symmetry_equiv_pos_site_id
 _symmetry_equiv_pos_as_xyz
  1  'x, y, z'
loop_
 _atom_site_type_symbol
 _atom_site_label
 _atom_site_symmetry_multiplicity
 _atom_site_fract_x
 _atom_site_fract_y
 _atom_site_fract_z
 _atom_site_occupancy
  Na  Na0  1  0.34293929  0.41417946  0.37262461  1
  Na  Na1  1  0.84293929  0.58582054  0.12737539  1
  Na  Na2  1  0.65706071  0.58582054  0.62737539  1
  Na  Na3  1  0.15706071  0.41417946  0.87262461  1
  Na  Na4  1  0.48629465  0.14675854  0.13324404  1
  Na  Na5  1  0.98629465  0.85324146  0.36675596  1
  Na  Na6  1  0.51370535  0.85324146  0.86675596  1
  Na  Na7  1  0.01370535  0.14675854  0.63324404  1
  Be  Be8  1  0.30456932  0.75443660  0.53744023  1
  Be  Be9  1  0.69543068  0.24556340  0.46255977  1
  Be  Be10  1  0.19543068  0.75443660  0.03744023  1
  Be  Be11  1  0.80456932  0.24556340  0.96255977  1
  F  F12  1  0.81837206  0.48661673  0.43241362  1
  F  F13  1  0.31837206  0.51338327  0.06758638  1
  F  F14  1  0.18162794  0.51338327  0.56758638  1
  F  F15  1  0.68162794  0.48661673  0.93241362  1
  F  F16  1  0.93564965  0.21197319  0.10317673  1
  F  F17  1  0.56435035  0.21197319  0.60317673  1
  F  F18  1  0.43564965  0.78802681  0.39682327  1
  F  F19  1  0.06435035  0.78802681  0.89682327  1
  F  F20  1  0.89428676  0.32631411  0.78905161  1
  F  F21  1  0.39428676  0.67368589  0.71094839  1
  F  F22  1  0.10571324  0.67368589  0.21094839  1
  F  F23  1  0.60571324  0.32631411  0.28905161  1
  F  F24  1  0.69491318  0.98072007  0.02217293  1
  F  F25  1  0.19491318  0.01927993  0.47782707  1
  F  F26  1  0.30508682  0.01927993  0.97782707  1
  F  F27  1  0.80508682  0.98072007  0.52217293  1
