# generated using pymatgen
data_Zr3Co
_symmetry_space_group_name_H-M   'P 1'
_cell_length_a   3.24406649
_cell_length_b   5.60728838
_cell_length_c   9.08576181
_cell_angle_alpha   90.00000000
_cell_angle_beta   90.00000000
_cell_angle_gamma   106.81440614
_symmetry_Int_Tables_number   1
_chemical_formula_structural   Zr3Co
_chemical_formula_sum   'Zr6 Co2'
_cell_volume   158.20780564
_cell_formula_units_Z   2
loop_
 _symmetry_equiv_pos_site_id
 _symmetry_equiv_pos_as_xyz
  1  'x, y, z'
loop_
 _atom_site_type_symbol
 _atom_site_label
 _atom_site_symmetry_multiplicity
 _atom_site_fract_x
 _atom_site_fract_y
 _atom_site_fract_z
 _atom_site_occupancy
  Zr  Zr0  1  0.41467965  0.82935830  0.75000000  1
  Zr  Zr1  1  0.58532035  0.17064170  0.25000000  1
  Zr  Zr2  1  0.13467577  0.26935254  0.94223347  1
  Zr  Zr3  1  0.86532423  0.73064746  0.05776653  1
  Zr  Zr4  1  0.86532423  0.73064746  0.44223347  1
  Zr  Zr5  1  0.13467577  0.26935254  0.55776653  1
  Co  Co6  1  0.72382025  0.44763950  0.75000000  1
  Co  Co7  1  0.27617975  0.55236050  0.25000000  1
