# generated using pymatgen
data_Sr3GeO
_symmetry_space_group_name_H-M   'P 1'
_cell_length_a   7.16585385
_cell_length_b   7.13911044
_cell_length_c   10.12552174
_cell_angle_alpha   90.00000000
_cell_angle_beta   90.00000000
_cell_angle_gamma   90.00000000
_symmetry_Int_Tables_number   1
_chemical_formula_structural   Sr3GeO
_chemical_formula_sum   'Sr12 Ge4 O4'
_cell_volume   517.99963916
_cell_formula_units_Z   4
loop_
 _symmetry_equiv_pos_site_id
 _symmetry_equiv_pos_as_xyz
  1  'x, y, z'
loop_
 _atom_site_type_symbol
 _atom_site_label
 _atom_site_symmetry_multiplicity
 _atom_site_fract_x
 _atom_site_fract_y
 _atom_site_fract_z
 _atom_site_occupancy
  Sr  Sr0  1  0.21934821  0.78143826  0.03073041  1
  Sr  Sr1  1  0.71934821  0.71856174  0.46926959  1
  Sr  Sr2  1  0.28065179  0.28143826  0.96926959  1
  Sr  Sr3  1  0.78065179  0.21856174  0.53073041  1
  Sr  Sr4  1  0.21934821  0.78143826  0.46926959  1
  Sr  Sr5  1  0.71934821  0.71856174  0.03073041  1
  Sr  Sr6  1  0.28065179  0.28143826  0.53073041  1
  Sr  Sr7  1  0.78065179  0.21856174  0.96926959  1
  Sr  Sr8  1  0.51004170  0.05914436  0.25000000  1
  Sr  Sr9  1  0.01004170  0.44085564  0.25000000  1
  Sr  Sr10  1  0.98995830  0.55914436  0.75000000  1
  Sr  Sr11  1  0.48995730  0.94085564  0.75000000  1
  Ge  Ge12  1  0.97529646  0.99455853  0.25000000  1
  Ge  Ge13  1  0.47529646  0.50544147  0.25000000  1
  Ge  Ge14  1  0.52470354  0.49455853  0.75000000  1
  Ge  Ge15  1  0.02470354  0.00544147  0.75000000  1
  O  O16  1  -0.00000000  0.50000000  0.50000000  1
  O  O17  1  0.50000000  -0.00000000  -0.00000000  1
  O  O18  1  0.50000000  -0.00000000  0.50000000  1
  O  O19  1  -0.00000000  0.50000000  -0.00000000  1
