# generated using pymatgen
data_CaAl9Ni
_symmetry_space_group_name_H-M   'P 1'
_cell_length_a   7.50950749
_cell_length_b   7.50950499
_cell_length_c   7.90390260
_cell_angle_alpha   90.00000095
_cell_angle_beta   89.99999771
_cell_angle_gamma   119.99947913
_symmetry_Int_Tables_number   1
_chemical_formula_structural   CaAl9Ni
_chemical_formula_sum   'Ca2 Al18 Ni2'
_cell_volume   386.00884456
_cell_formula_units_Z   2
loop_
 _symmetry_equiv_pos_site_id
 _symmetry_equiv_pos_as_xyz
  1  'x, y, z'
loop_
 _atom_site_type_symbol
 _atom_site_label
 _atom_site_symmetry_multiplicity
 _atom_site_fract_x
 _atom_site_fract_y
 _atom_site_fract_z
 _atom_site_occupancy
  Ca  Ca0  1  0.00000008  0.00000006  0.25000013  1
  Ca  Ca1  1  -0.00000022  -0.00000023  0.74999984  1
  Al  Al2  1  0.47664712  0.95329483  0.25000004  1
  Al  Al3  1  0.52335111  0.47664884  0.75000013  1
  Al  Al4  1  0.95329642  0.47664882  0.75000007  1
  Al  Al5  1  0.04670510  0.52335274  0.24999998  1
  Al  Al6  1  0.47664805  0.52335189  0.24999989  1
  Al  Al7  1  0.52335101  0.04670357  0.74999992  1
  Al  Al8  1  0.20863090  0.41726214  0.51697711  1
  Al  Al9  1  0.79136883  0.20863091  0.01697408  1
  Al  Al10  1  0.41726268  0.20863111  0.01697403  1
  Al  Al11  1  0.58273784  0.79136888  0.51697703  1
  Al  Al12  1  0.20863109  0.79136915  0.51697737  1
  Al  Al13  1  0.79136880  0.58273730  0.48302607  1
  Al  Al14  1  0.79136878  0.20863088  0.48302590  1
  Al  Al15  1  0.79136873  0.58273722  0.01697397  1
  Al  Al16  1  0.41726267  0.20863162  0.48302598  1
  Al  Al17  1  0.58273776  0.79136880  0.98302292  1
  Al  Al18  1  0.20863109  0.41726212  0.98302285  1
  Al  Al19  1  0.20863104  0.79136891  0.98302255  1
  Ni  Ni20  1  0.33333449  0.66666664  0.75000007  1
  Ni  Ni21  1  0.66666763  0.33333379  0.25000008  1
