# generated using pymatgen
data_Pr3OsO7
_symmetry_space_group_name_H-M   'P 1'
_cell_length_a   6.68156705
_cell_length_b   6.68156705
_cell_length_c   7.59978534
_cell_angle_alpha   90.00000000
_cell_angle_beta   90.00000000
_cell_angle_gamma   111.97840017
_symmetry_Int_Tables_number   1
_chemical_formula_structural   Pr3OsO7
_chemical_formula_sum   'Pr6 Os2 O14'
_cell_volume   314.62263241
_cell_formula_units_Z   2
loop_
 _symmetry_equiv_pos_site_id
 _symmetry_equiv_pos_as_xyz
  1  'x, y, z'
loop_
 _atom_site_type_symbol
 _atom_site_label
 _atom_site_symmetry_multiplicity
 _atom_site_fract_x
 _atom_site_fract_y
 _atom_site_fract_z
 _atom_site_occupancy
  Pr  Pr0  1  -0.00000000  0.00000000  -0.00000000  1
  Pr  Pr1  1  -0.00000000  0.00000000  0.50000000  1
  Pr  Pr2  1  0.46924719  0.91335937  0.75000000  1
  Pr  Pr3  1  0.53075281  0.08664063  0.25000000  1
  Pr  Pr4  1  0.91335937  0.46924719  0.75000000  1
  Pr  Pr5  1  0.08664063  0.53075281  0.25000000  1
  Os  Os6  1  0.50000000  0.50000000  -0.00000000  1
  Os  Os7  1  0.50000000  0.50000000  0.50000000  1
  O  O8  1  0.58235979  0.58235979  0.75000000  1
  O  O9  1  0.41764021  0.41764021  0.25000000  1
  O  O10  1  0.84048501  0.10271004  0.75000000  1
  O  O11  1  0.15951499  0.89728996  0.25000000  1
  O  O12  1  0.10271004  0.84048501  0.75000000  1
  O  O13  1  0.89728996  0.15951499  0.25000000  1
  O  O14  1  0.44012250  0.19079704  0.95981912  1
  O  O15  1  0.55987750  0.80920296  0.45981912  1
  O  O16  1  0.19079704  0.44012250  0.95981912  1
  O  O17  1  0.80920296  0.55987750  0.45981912  1
  O  O18  1  0.44012250  0.19079704  0.54018088  1
  O  O19  1  0.55987750  0.80920296  0.04018088  1
  O  O20  1  0.80920296  0.55987750  0.04018088  1
  O  O21  1  0.19079704  0.44012250  0.54018088  1
