# generated using pymatgen
data_Al4(B2O5)3
_symmetry_space_group_name_H-M   'P 1'
_cell_length_a   6.93571229
_cell_length_b   6.93571311
_cell_length_c   6.93571271
_cell_angle_alpha   110.75395584
_cell_angle_beta   110.75395851
_cell_angle_gamma   110.75395177
_symmetry_Int_Tables_number   1
_chemical_formula_structural   Al4(B2O5)3
_chemical_formula_sum   'Al4 B6 O15'
_cell_volume   243.87534353
_cell_formula_units_Z   1
loop_
 _symmetry_equiv_pos_site_id
 _symmetry_equiv_pos_as_xyz
  1  'x, y, z'
loop_
 _atom_site_type_symbol
 _atom_site_label
 _atom_site_symmetry_multiplicity
 _atom_site_fract_x
 _atom_site_fract_y
 _atom_site_fract_z
 _atom_site_occupancy
  Al  Al0  1  0.08388486  0.80337723  0.29284521  1
  Al  Al1  1  0.80337723  0.29284521  0.08388486  1
  Al  Al2  1  0.29284521  0.08388486  0.80337723  1
  Al  Al3  1  0.00252166  0.00252166  0.00252166  1
  B  B4  1  0.17247595  0.27420722  0.50092481  1
  B  B5  1  0.27420722  0.50092481  0.17247595  1
  B  B6  1  0.50092481  0.17247595  0.27420722  1
  B  B7  1  0.59915784  0.52496058  0.85667866  1
  B  B8  1  0.52496058  0.85667866  0.59915784  1
  B  B9  1  0.85667866  0.59915784  0.52496058  1
  O  O10  1  0.07711686  0.52591210  0.10418127  1
  O  O11  1  0.68971933  0.39254488  0.50085420  1
  O  O12  1  0.50085420  0.68971933  0.39254488  1
  O  O13  1  0.39254488  0.50085420  0.68971933  1
  O  O14  1  0.10418127  0.07711686  0.52591210  1
  O  O15  1  0.24067383  0.27936504  0.02717075  1
  O  O16  1  0.02717075  0.24067383  0.27936504  1
  O  O17  1  0.01685225  0.82447177  0.74457732  1
  O  O18  1  0.74457732  0.01685225  0.82447177  1
  O  O19  1  0.82447177  0.74457732  0.01685225  1
  O  O20  1  0.57730640  0.33134484  0.87517814  1
  O  O21  1  0.87517814  0.57730640  0.33134484  1
  O  O22  1  0.33134484  0.87517814  0.57730640  1
  O  O23  1  0.27936504  0.02717075  0.24067383  1
  O  O24  1  0.52591210  0.10418127  0.07711686  1
