# generated using pymatgen
data_Rb2BeF4
_symmetry_space_group_name_H-M   'P 1'
_cell_length_a   5.83217377
_cell_length_b   7.65505271
_cell_length_c   10.15966698
_cell_angle_alpha   90.00000000
_cell_angle_beta   90.00000000
_cell_angle_gamma   90.00000000
_symmetry_Int_Tables_number   1
_chemical_formula_structural   Rb2BeF4
_chemical_formula_sum   'Rb8 Be4 F16'
_cell_volume   453.58440398
_cell_formula_units_Z   4
loop_
 _symmetry_equiv_pos_site_id
 _symmetry_equiv_pos_as_xyz
  1  'x, y, z'
loop_
 _atom_site_type_symbol
 _atom_site_label
 _atom_site_symmetry_multiplicity
 _atom_site_fract_x
 _atom_site_fract_y
 _atom_site_fract_z
 _atom_site_occupancy
  Rb  Rb0  1  0.75000000  0.98517856  0.31064358  1
  Rb  Rb1  1  0.25000000  0.01482144  0.68935642  1
  Rb  Rb2  1  0.25000000  0.51482144  0.81064358  1
  Rb  Rb3  1  0.75000000  0.48517856  0.18935642  1
  Rb  Rb4  1  0.75000000  0.65965514  0.59493800  1
  Rb  Rb5  1  0.25000000  0.34034486  0.40506200  1
  Rb  Rb6  1  0.25000000  0.84034486  0.09493800  1
  Rb  Rb7  1  0.75000000  0.15965514  0.90506200  1
  Be  Be8  1  0.25000000  0.26193855  0.08208014  1
  Be  Be9  1  0.75000000  0.23806145  0.58208014  1
  Be  Be10  1  0.25000000  0.76193855  0.41791986  1
  Be  Be11  1  0.75000000  0.73806145  0.91791986  1
  F  F12  1  0.96776478  0.31087125  0.65151801  1
  F  F13  1  0.46776478  0.68912875  0.34848199  1
  F  F14  1  0.46776478  0.18912875  0.15151801  1
  F  F15  1  0.96776478  0.81087125  0.84848199  1
  F  F16  1  0.53223522  0.81087125  0.84848199  1
  F  F17  1  0.53223522  0.31087125  0.65151801  1
  F  F18  1  0.03223522  0.18912875  0.15151801  1
  F  F19  1  0.03223522  0.68912875  0.34848199  1
  F  F20  1  0.75000000  0.53568650  0.91069756  1
  F  F21  1  0.25000000  0.46431350  0.08930244  1
  F  F22  1  0.25000000  0.96431350  0.41069756  1
  F  F23  1  0.75000000  0.03568650  0.58930244  1
  F  F24  1  0.75000000  0.80663578  0.06294411  1
  F  F25  1  0.25000000  0.19336422  0.93705589  1
  F  F26  1  0.25000000  0.69336422  0.56294411  1
  F  F27  1  0.75000000  0.30663578  0.43705589  1
