# generated using pymatgen
data_RbHfF5
_symmetry_space_group_name_H-M   'P 1'
_cell_length_a   7.71733109
_cell_length_b   7.71733109
_cell_length_c   7.86925421
_cell_angle_alpha   90.00000000
_cell_angle_beta   90.00000000
_cell_angle_gamma   118.66451408
_symmetry_Int_Tables_number   1
_chemical_formula_structural   RbHfF5
_chemical_formula_sum   'Rb4 Hf4 F20'
_cell_volume   411.23205720
_cell_formula_units_Z   4
loop_
 _symmetry_equiv_pos_site_id
 _symmetry_equiv_pos_as_xyz
  1  'x, y, z'
loop_
 _atom_site_type_symbol
 _atom_site_label
 _atom_site_symmetry_multiplicity
 _atom_site_fract_x
 _atom_site_fract_y
 _atom_site_fract_z
 _atom_site_occupancy
  Rb  Rb0  1  0.79576327  0.20423673  0.50000000  1
  Rb  Rb1  1  0.70423673  0.29576327  -0.00000000  1
  Rb  Rb2  1  0.20423673  0.79576327  0.50000000  1
  Rb  Rb3  1  0.29576327  0.70423673  -0.00000000  1
  Hf  Hf4  1  0.66228448  0.66228448  0.66166676  1
  Hf  Hf5  1  0.83771552  0.83771552  0.16166676  1
  Hf  Hf6  1  0.33771552  0.33771552  0.33833324  1
  Hf  Hf7  1  0.16228448  0.16228448  0.83833324  1
  F  F8  1  0.08772834  0.91227166  -0.00000000  1
  F  F9  1  0.41227166  0.58772834  0.50000000  1
  F  F10  1  0.91227166  0.08772834  -0.00000000  1
  F  F11  1  0.58772834  0.41227166  0.50000000  1
  F  F12  1  0.29022843  0.29022843  0.06417699  1
  F  F13  1  0.20977157  0.20977157  0.56417699  1
  F  F14  1  0.70977157  0.70977157  0.93582301  1
  F  F15  1  0.79022843  0.79022843  0.43582301  1
  F  F16  1  0.57009775  0.85850850  0.71082851  1
  F  F17  1  0.92990225  0.64149150  0.21082851  1
  F  F18  1  0.42990225  0.14149150  0.28917149  1
  F  F19  1  0.07009775  0.35850850  0.78917149  1
  F  F20  1  0.85850850  0.57009775  0.71082851  1
  F  F21  1  0.64149150  0.92990225  0.21082851  1
  F  F22  1  0.14149150  0.42990225  0.28917149  1
  F  F23  1  0.35850850  0.07009775  0.78917149  1
  F  F24  1  0.43708244  0.43708244  0.79051779  1
  F  F25  1  0.06291756  0.06291756  0.29051779  1
  F  F26  1  0.56291756  0.56291756  0.20948221  1
  F  F27  1  0.93708244  0.93708244  0.70948221  1
