# generated using pymatgen
data_Er4(Al8Pt3)3
_symmetry_space_group_name_H-M   'P 1'
_cell_length_a   7.47160123
_cell_length_b   7.46935052
_cell_length_c   13.05719937
_cell_angle_alpha   84.53897485
_cell_angle_beta   100.93307725
_cell_angle_gamma   119.88066117
_symmetry_Int_Tables_number   1
_chemical_formula_structural   Er4(Al8Pt3)3
_chemical_formula_sum   'Er4 Al24 Pt9'
_cell_volume   620.35876949
_cell_formula_units_Z   1
loop_
 _symmetry_equiv_pos_site_id
 _symmetry_equiv_pos_as_xyz
  1  'x, y, z'
loop_
 _atom_site_type_symbol
 _atom_site_label
 _atom_site_symmetry_multiplicity
 _atom_site_fract_x
 _atom_site_fract_y
 _atom_site_fract_z
 _atom_site_occupancy
  Er  Er0  1  0.73268327  0.99889293  0.19223605  1
  Er  Er1  1  0.26731673  0.00110707  0.80776395  1
  Er  Er2  1  0.06235319  0.66819618  0.19223039  1
  Er  Er3  1  0.93764681  0.33180382  0.80776961  1
  Al  Al4  1  0.80779641  0.86912464  0.81559544  1
  Al  Al5  1  0.19220359  0.13087536  0.18440456  1
  Al  Al6  1  0.98208622  0.66631999  0.94477832  1
  Al  Al7  1  0.01791378  0.33368001  0.05522168  1
  Al  Al8  1  0.39793227  0.66385713  0.81685476  1
  Al  Al9  1  0.60206773  0.33614287  0.18314524  1
  Al  Al10  1  0.88278523  0.66540835  0.67124535  1
  Al  Al11  1  0.11721477  0.33459165  0.32875465  1
  Al  Al12  1  0.60296570  0.45809535  0.81642087  1
  Al  Al13  1  0.39703430  0.54190465  0.18357913  1
  Al  Al14  1  0.23019590  0.33993706  0.66985352  1
  Al  Al15  1  0.76980410  0.66006294  0.33014648  1
  Al  Al16  1  0.85305342  0.33334564  0.55901559  1
  Al  Al17  1  0.18594558  0.99939296  0.55898854  1
  Al  Al18  1  0.81405442  0.00060704  0.44101146  1
  Al  Al19  1  0.35207953  0.99952175  0.05534789  1
  Al  Al20  1  0.64792047  0.00047825  0.94465211  1
  Al  Al21  1  0.55629351  0.99345146  0.67145160  1
  Al  Al22  1  0.44370649  0.00654854  0.32854840  1
  Al  Al23  1  0.52078538  0.66748364  0.56135338  1
  Al  Al24  1  0.47921462  0.33251636  0.43864662  1
  Al  Al25  1  0.68280657  0.66751770  0.04640431  1
  Al  Al26  1  0.31719343  0.33248230  0.95359569  1
  Al  Al27  1  0.14694658  0.66665436  0.44098441  1
  Pt  Pt28  1  0.32829450  0.67169869  0.00011178  1
  Pt  Pt29  1  0.54577714  0.32493843  0.63769884  1
  Pt  Pt30  1  0.45422286  0.67506157  0.36230116  1
  Pt  Pt31  1  0.88801317  0.00833424  0.63909283  1
  Pt  Pt32  1  0.11198683  0.99166576  0.36090717  1
  Pt  Pt33  1  0.67170550  0.32830131  0.99988822  1
  Pt  Pt34  1  0.20436999  0.66662688  0.63906463  1
  Pt  Pt35  1  0.79563001  0.33337312  0.36093537  1
  Pt  Pt36  1  -0.00000000  -0.00000000  0.00000000  1
