# generated using pymatgen
data_KBH4
_symmetry_space_group_name_H-M   'P 1'
_cell_length_a   4.66336731
_cell_length_b   9.29766964
_cell_length_c   8.03491513
_cell_angle_alpha   30.20590341
_cell_angle_beta   54.58927316
_cell_angle_gamma   59.94711702
_symmetry_Int_Tables_number   1
_chemical_formula_structural   KBH4
_chemical_formula_sum   'K2 B2 H8'
_cell_volume   142.85156960
_cell_formula_units_Z   2
loop_
 _symmetry_equiv_pos_site_id
 _symmetry_equiv_pos_as_xyz
  1  'x, y, z'
loop_
 _atom_site_type_symbol
 _atom_site_label
 _atom_site_symmetry_multiplicity
 _atom_site_fract_x
 _atom_site_fract_y
 _atom_site_fract_z
 _atom_site_occupancy
  K  K0  1  0.00007260  0.99998156  0.00013602  1
  K  K1  1  0.99992843  0.50001235  0.99986446  1
  B  B2  1  0.50053216  0.49997874  0.49997651  1
  B  B3  1  0.49946725  0.00002255  0.50002383  1
  H  H4  1  0.39270952  0.00005731  0.39205592  1
  H  H5  1  0.39146973  0.21359003  0.39449200  1
  H  H6  1  0.82174098  0.00004342  0.39218548  1
  H  H7  1  0.17825919  0.49995723  0.60781540  1
  H  H8  1  0.60853073  0.28641129  0.60550792  1
  H  H9  1  0.60852023  0.71350126  0.17842249  1
  H  H10  1  0.60729057  0.49994327  0.60794491  1
  H  H11  1  0.39147961  0.78650000  0.82157806  1
