# generated using pymatgen
data_Ho2Ni2Pb
_symmetry_space_group_name_H-M   'P 1'
_cell_length_a   3.63366665
_cell_length_b   3.96901470
_cell_length_c   7.31614615
_cell_angle_alpha   105.73868676
_cell_angle_beta   90.00000000
_cell_angle_gamma   90.00000000
_symmetry_Int_Tables_number   1
_chemical_formula_structural   Ho2Ni2Pb
_chemical_formula_sum   'Ho2 Ni2 Pb1'
_cell_volume   101.55817270
_cell_formula_units_Z   1
loop_
 _symmetry_equiv_pos_site_id
 _symmetry_equiv_pos_as_xyz
  1  'x, y, z'
loop_
 _atom_site_type_symbol
 _atom_site_label
 _atom_site_symmetry_multiplicity
 _atom_site_fract_x
 _atom_site_fract_y
 _atom_site_fract_z
 _atom_site_occupancy
  Ho  Ho0  1  0.50000000  0.64077611  0.28155223  1
  Ho  Ho1  1  0.50000000  0.35922389  0.71844777  1
  Ni  Ni2  1  -0.00000000  0.20128213  0.40256226  1
  Ni  Ni3  1  0.00000000  0.79871787  0.59743774  1
  Pb  Pb4  1  -0.00000000  -0.00000000  0.00000000  1
