# generated using pymatgen
data_Na2RuO3
_symmetry_space_group_name_H-M   'P 1'
_cell_length_a   5.41389140
_cell_length_b   5.41389178
_cell_length_c   5.56502690
_cell_angle_alpha   80.74805128
_cell_angle_beta   80.74805939
_cell_angle_gamma   120.70560125
_symmetry_Int_Tables_number   1
_chemical_formula_structural   Na2RuO3
_chemical_formula_sum   'Na4 Ru2 O6'
_cell_volume   132.62974517
_cell_formula_units_Z   2
loop_
 _symmetry_equiv_pos_site_id
 _symmetry_equiv_pos_as_xyz
  1  'x, y, z'
loop_
 _atom_site_type_symbol
 _atom_site_label
 _atom_site_symmetry_multiplicity
 _atom_site_fract_x
 _atom_site_fract_y
 _atom_site_fract_z
 _atom_site_occupancy
  Na  Na0  1  0.65901183  0.34098803  0.49999993  1
  Na  Na1  1  0.34098817  0.65901197  0.50000007  1
  Na  Na2  1  -0.00000000  -0.00000000  0.50000000  1
  Na  Na3  1  0.50000000  0.50000000  0.00000000  1
  Ru  Ru4  1  0.16515391  0.83484682  -0.00000004  1
  Ru  Ru5  1  0.83484609  0.16515318  0.00000004  1
  O  O6  1  0.41856728  0.05752192  0.20605797  1
  O  O7  1  0.05752209  0.41856732  0.20605809  1
  O  O8  1  0.79304303  0.79304304  0.21171035  1
  O  O9  1  0.58143272  0.94247808  0.79394203  1
  O  O10  1  0.20695697  0.20695696  0.78828965  1
  O  O11  1  0.94247791  0.58143268  0.79394191  1
