# generated using pymatgen
data_TbTlPd
_symmetry_space_group_name_H-M   'P 1'
_cell_length_a   7.80719504
_cell_length_b   7.80719441
_cell_length_c   3.78545606
_cell_angle_alpha   90.00000000
_cell_angle_beta   90.00000000
_cell_angle_gamma   119.99999395
_symmetry_Int_Tables_number   1
_chemical_formula_structural   TbTlPd
_chemical_formula_sum   'Tb3 Tl3 Pd3'
_cell_volume   199.81997064
_cell_formula_units_Z   3
loop_
 _symmetry_equiv_pos_site_id
 _symmetry_equiv_pos_as_xyz
  1  'x, y, z'
loop_
 _atom_site_type_symbol
 _atom_site_label
 _atom_site_symmetry_multiplicity
 _atom_site_fract_x
 _atom_site_fract_y
 _atom_site_fract_z
 _atom_site_occupancy
  Tb  Tb0  1  0.59836680  1.00000000  0.50000000  1
  Tb  Tb1  1  0.40163320  0.40163320  0.50000000  1
  Tb  Tb2  1  1.00000000  0.59836680  0.50000000  1
  Tl  Tl3  1  0.26810665  0.00000000  -0.00000000  1
  Tl  Tl4  1  0.73189335  0.73189335  -0.00000000  1
  Tl  Tl5  1  0.00000000  0.26810665  0.00000000  1
  Pd  Pd6  1  0.00000000  0.00000000  0.50000000  1
  Pd  Pd7  1  0.33333300  0.66666700  -0.00000000  1
  Pd  Pd8  1  0.66666700  0.33333300  -0.00000000  1
