# generated using pymatgen
data_TbCo3B2
_symmetry_space_group_name_H-M   'P 1'
_cell_length_a   5.03689182
_cell_length_b   5.03689635
_cell_length_c   2.92865700
_cell_angle_alpha   90.00000000
_cell_angle_beta   90.00000000
_cell_angle_gamma   119.99947206
_symmetry_Int_Tables_number   1
_chemical_formula_structural   TbCo3B2
_chemical_formula_sum   'Tb1 Co3 B2'
_cell_volume   64.34682015
_cell_formula_units_Z   1
loop_
 _symmetry_equiv_pos_site_id
 _symmetry_equiv_pos_as_xyz
  1  'x, y, z'
loop_
 _atom_site_type_symbol
 _atom_site_label
 _atom_site_symmetry_multiplicity
 _atom_site_fract_x
 _atom_site_fract_y
 _atom_site_fract_z
 _atom_site_occupancy
  Tb  Tb0  1  -0.00000000  0.00000000  -0.00000000  1
  Co  Co1  1  0.50000000  0.00000000  0.50000000  1
  Co  Co2  1  -0.00000000  0.50000000  0.50000000  1
  Co  Co3  1  0.50000000  0.50000000  0.50000000  1
  B  B4  1  0.33333457  0.66666190  0.00000000  1
  B  B5  1  0.66666543  0.33333810  0.00000000  1
