# generated using pymatgen
data_Sr3SiO
_symmetry_space_group_name_H-M   'P 1'
_cell_length_a   7.15066135
_cell_length_b   7.13016274
_cell_length_c   10.10705953
_cell_angle_alpha   90.00000000
_cell_angle_beta   90.00000000
_cell_angle_gamma   90.00000000
_symmetry_Int_Tables_number   1
_chemical_formula_structural   Sr3SiO
_chemical_formula_sum   'Sr12 Si4 O4'
_cell_volume   515.31226197
_cell_formula_units_Z   4
loop_
 _symmetry_equiv_pos_site_id
 _symmetry_equiv_pos_as_xyz
  1  'x, y, z'
loop_
 _atom_site_type_symbol
 _atom_site_label
 _atom_site_symmetry_multiplicity
 _atom_site_fract_x
 _atom_site_fract_y
 _atom_site_fract_z
 _atom_site_occupancy
  Sr  Sr0  1  0.21834294  0.78162215  0.03059498  1
  Sr  Sr1  1  0.71834294  0.71837785  0.46940502  1
  Sr  Sr2  1  0.28165706  0.28162215  0.96940502  1
  Sr  Sr3  1  0.78165706  0.21837785  0.53059498  1
  Sr  Sr4  1  0.21834294  0.78162215  0.46940502  1
  Sr  Sr5  1  0.71834294  0.71837785  0.03059498  1
  Sr  Sr6  1  0.28165706  0.28162215  0.53059498  1
  Sr  Sr7  1  0.78165706  0.21837785  0.96940502  1
  Sr  Sr8  1  0.50845310  0.05880105  0.25000000  1
  Sr  Sr9  1  0.00845310  0.44119895  0.25000000  1
  Sr  Sr10  1  0.99154690  0.55880105  0.75000000  1
  Sr  Sr11  1  0.49154690  0.94119895  0.75000000  1
  Si  Si12  1  0.97504498  0.99470711  0.25000000  1
  Si  Si13  1  0.47504498  0.50529289  0.25000000  1
  Si  Si14  1  0.52495502  0.49470711  0.75000000  1
  Si  Si15  1  0.02495502  0.00529289  0.75000000  1
  O  O16  1  -0.00000000  0.50000000  0.50000000  1
  O  O17  1  0.50000000  -0.00000000  0.00000000  1
  O  O18  1  0.50000000  -0.00000000  0.50000000  1
  O  O19  1  -0.00000000  0.50000000  0.00000000  1
