# generated using pymatgen
data_Sb2Te2Se
_symmetry_space_group_name_H-M   'P 1'
_cell_length_a   10.64759170
_cell_length_b   10.64759170
_cell_length_c   10.64759152
_cell_angle_alpha   22.84357956
_cell_angle_beta   22.84357956
_cell_angle_gamma   22.84357437
_symmetry_Int_Tables_number   1
_chemical_formula_structural   Sb2Te2Se
_chemical_formula_sum   'Sb2 Te2 Se1'
_cell_volume   159.64137548
_cell_formula_units_Z   1
loop_
 _symmetry_equiv_pos_site_id
 _symmetry_equiv_pos_as_xyz
  1  'x, y, z'
loop_
 _atom_site_type_symbol
 _atom_site_label
 _atom_site_symmetry_multiplicity
 _atom_site_fract_x
 _atom_site_fract_y
 _atom_site_fract_z
 _atom_site_occupancy
  Sb  Sb0  1  0.89084095  0.89084095  0.89084095  1
  Sb  Sb1  1  0.10915905  0.10915905  0.10915905  1
  Te  Te2  1  0.72010802  0.72010802  0.72010802  1
  Te  Te3  1  0.27989198  0.27989198  0.27989198  1
  Se  Se4  1  0.50000000  0.50000000  0.50000000  1
