# generated using pymatgen
data_BaSO4
_symmetry_space_group_name_H-M   'P 1'
_cell_length_a   5.46903188
_cell_length_b   7.18825422
_cell_length_c   8.91393949
_cell_angle_alpha   90.00000000
_cell_angle_beta   90.00000000
_cell_angle_gamma   90.00000000
_symmetry_Int_Tables_number   1
_chemical_formula_structural   BaSO4
_chemical_formula_sum   'Ba4 S4 O16'
_cell_volume   350.43184453
_cell_formula_units_Z   4
loop_
 _symmetry_equiv_pos_site_id
 _symmetry_equiv_pos_as_xyz
  1  'x, y, z'
loop_
 _atom_site_type_symbol
 _atom_site_label
 _atom_site_symmetry_multiplicity
 _atom_site_fract_x
 _atom_site_fract_y
 _atom_site_fract_z
 _atom_site_occupancy
  Ba  Ba0  1  0.25000000  0.84323851  0.68510564  1
  Ba  Ba1  1  0.75000000  0.15676149  0.31489436  1
  Ba  Ba2  1  0.75000000  0.34323851  0.81489436  1
  Ba  Ba3  1  0.25000000  0.65676149  0.18510564  1
  S  S4  1  0.25000000  0.30928493  0.56192277  1
  S  S5  1  0.75000000  0.69071507  0.43807723  1
  S  S6  1  0.75000000  0.80928493  0.93807723  1
  S  S7  1  0.25000000  0.19071507  0.06192277  1
  O  O8  1  0.53023403  0.81068088  0.41985536  1
  O  O9  1  0.03023403  0.18931912  0.58014464  1
  O  O10  1  0.46976597  0.31068088  0.08014464  1
  O  O11  1  0.96976597  0.68931912  0.91985536  1
  O  O12  1  0.46976597  0.18931912  0.58014464  1
  O  O13  1  0.96976597  0.81068088  0.41985536  1
  O  O14  1  0.53023403  0.68931912  0.91985536  1
  O  O15  1  0.03023403  0.31068088  0.08014464  1
  O  O16  1  0.25000000  0.39128857  0.41162364  1
  O  O17  1  0.75000000  0.60871143  0.58837636  1
  O  O18  1  0.75000000  0.89128857  0.08837636  1
  O  O19  1  0.25000000  0.10871143  0.91162364  1
  O  O20  1  0.25000000  0.04902758  0.18154347  1
  O  O21  1  0.75000000  0.95097242  0.81845653  1
  O  O22  1  0.75000000  0.54902758  0.31845653  1
  O  O23  1  0.25000000  0.45097242  0.68154347  1
