# generated using pymatgen
data_ErInAu
_symmetry_space_group_name_H-M   'P 1'
_cell_length_a   7.62515544
_cell_length_b   7.62515538
_cell_length_c   3.98291941
_cell_angle_alpha   90.00000000
_cell_angle_beta   90.00000000
_cell_angle_gamma   120.00000026
_symmetry_Int_Tables_number   1
_chemical_formula_structural   ErInAu
_chemical_formula_sum   'Er3 In3 Au3'
_cell_volume   200.55317821
_cell_formula_units_Z   3
loop_
 _symmetry_equiv_pos_site_id
 _symmetry_equiv_pos_as_xyz
  1  'x, y, z'
loop_
 _atom_site_type_symbol
 _atom_site_label
 _atom_site_symmetry_multiplicity
 _atom_site_fract_x
 _atom_site_fract_y
 _atom_site_fract_z
 _atom_site_occupancy
  Er  Er0  1  0.59572355  -0.00000000  0.50000000  1
  Er  Er1  1  0.40427645  0.40427645  0.50000000  1
  Er  Er2  1  0.00000000  0.59572355  0.50000000  1
  In  In3  1  0.00000000  0.26049838  -0.00000000  1
  In  In4  1  0.73950162  0.73950162  0.00000000  1
  In  In5  1  0.26049838  -0.00000000  -0.00000000  1
  Au  Au6  1  0.66666700  0.33333300  0.00000000  1
  Au  Au7  1  0.33333300  0.66666700  -0.00000000  1
  Au  Au8  1  -0.00000000  -0.00000000  0.50000000  1
