# generated using pymatgen
data_Sr4Lu3F17
_symmetry_space_group_name_H-M   'P 1'
_cell_length_a   8.84094836
_cell_length_b   8.85356153
_cell_length_c   8.88801791
_cell_angle_alpha   72.78520390
_cell_angle_beta   73.04079608
_cell_angle_gamma   72.95891988
_symmetry_Int_Tables_number   1
_chemical_formula_structural   Sr4Lu3F17
_chemical_formula_sum   'Sr8 Lu6 F34'
_cell_volume   619.15017905
_cell_formula_units_Z   2
loop_
 _symmetry_equiv_pos_site_id
 _symmetry_equiv_pos_as_xyz
  1  'x, y, z'
loop_
 _atom_site_type_symbol
 _atom_site_label
 _atom_site_symmetry_multiplicity
 _atom_site_fract_x
 _atom_site_fract_y
 _atom_site_fract_z
 _atom_site_occupancy
  Sr  Sr0  1  0.10349367  0.69262181  0.95547613  1
  Sr  Sr1  1  0.73144065  0.73701053  0.73508140  1
  Sr  Sr2  1  0.94150883  0.11149988  0.68887464  1
  Sr  Sr3  1  0.30763320  0.05007127  0.89451043  1
  Sr  Sr4  1  0.68746586  0.94425217  0.11342236  1
  Sr  Sr5  1  0.04943285  0.88986377  0.31295799  1
  Sr  Sr6  1  0.26185249  0.26849036  0.26634801  1
  Sr  Sr7  1  0.89036799  0.30913517  0.05584200  1
  Lu  Lu8  1  0.53363168  0.38795202  0.84124362  1
  Lu  Lu9  1  0.38777538  0.84246143  0.53396175  1
  Lu  Lu10  1  0.15693045  0.46701500  0.61184500  1
  Lu  Lu11  1  0.81892800  0.52958950  0.39011873  1
  Lu  Lu12  1  0.61078333  0.17805648  0.46264447  1
  Lu  Lu13  1  0.47184324  0.60639445  0.17346200  1
  F  F14  1  0.00244849  0.99418274  0.00498893  1
  F  F15  1  0.54338156  0.82599379  0.98072134  1
  F  F16  1  0.85871141  0.86361658  0.86218310  1
  F  F17  1  0.64286083  0.51278784  0.95551580  1
  F  F18  1  0.98197287  0.54772000  0.82572583  1
  F  F19  1  0.74095695  0.21176831  0.92162242  1
  F  F20  1  0.82131965  0.98103208  0.54816736  1
  F  F21  1  0.21178963  0.91616054  0.74240987  1
  F  F22  1  0.50877732  0.96367840  0.64416469  1
  F  F23  1  0.45729724  0.65117238  0.73765534  1
  F  F24  1  0.30541937  0.40383413  0.78912235  1
  F  F25  1  0.74468820  0.45074593  0.65576723  1
  F  F26  1  0.95286490  0.64420430  0.51514578  1
  F  F27  1  0.60184841  0.20457379  0.69898643  1
  F  F28  1  0.08012418  0.25810380  0.78750975  1
  F  F29  1  0.65053640  0.74801706  0.45422132  1
  F  F30  1  0.20917792  0.69772283  0.58767085  1
  F  F31  1  0.55749072  0.48113905  0.44500338  1
  F  F32  1  0.82484934  0.28144404  0.39359536  1
  F  F33  1  0.34624617  0.26099386  0.54263863  1
  F  F34  1  0.91461858  0.73714306  0.22203458  1
  F  F35  1  0.41166020  0.80004940  0.29919933  1
  F  F36  1  0.03896252  0.35823845  0.48926939  1
  F  F37  1  0.25823122  0.54268730  0.34980534  1
  F  F38  1  0.71746219  0.60345022  0.17398358  1
  F  F39  1  0.54935553  0.33891883  0.23866102  1
  F  F40  1  0.48530437  0.04708862  0.35762213  1
  F  F41  1  0.78342767  0.07943510  0.26134340  1
  F  F42  1  0.17298797  0.02022886  0.45499398  1
  F  F43  1  0.26126559  0.78134617  0.09022575  1
  F  F44  1  0.01958403  0.45402193  0.17468764  1
  F  F45  1  0.35362377  0.49041157  0.04155518  1
  F  F46  1  0.13926675  0.13745074  0.13978585  1
  F  F47  1  0.45139941  0.17522049  0.01923252  1
