# generated using pymatgen
data_U2SeN2
_symmetry_space_group_name_H-M   'P 1'
_cell_length_a   3.84397768
_cell_length_b   3.84397768
_cell_length_c   7.00266337
_cell_angle_alpha   90.00000000
_cell_angle_beta   90.00000000
_cell_angle_gamma   120.00000237
_symmetry_Int_Tables_number   1
_chemical_formula_structural   U2SeN2
_chemical_formula_sum   'U2 Se1 N2'
_cell_volume   89.60981586
_cell_formula_units_Z   1
loop_
 _symmetry_equiv_pos_site_id
 _symmetry_equiv_pos_as_xyz
  1  'x, y, z'
loop_
 _atom_site_type_symbol
 _atom_site_label
 _atom_site_symmetry_multiplicity
 _atom_site_fract_x
 _atom_site_fract_y
 _atom_site_fract_z
 _atom_site_occupancy
  U  U0  1  0.66666700  0.33333300  0.70200685  1
  U  U1  1  0.33333300  0.66666700  0.29799315  1
  Se  Se2  1  0.00000000  -0.00000000  0.00000000  1
  N  N3  1  0.33333300  0.66666700  0.62672174  1
  N  N4  1  0.66666700  0.33333300  0.37327826  1
