# generated using pymatgen
data_DyNiBi
_symmetry_space_group_name_H-M   'P 1'
_cell_length_a   4.54932176
_cell_length_b   4.54932105
_cell_length_c   4.54932045
_cell_angle_alpha   60.00000447
_cell_angle_beta   60.00000957
_cell_angle_gamma   59.99999708
_symmetry_Int_Tables_number   1
_chemical_formula_structural   DyNiBi
_chemical_formula_sum   'Dy1 Ni1 Bi1'
_cell_volume   66.57708997
_cell_formula_units_Z   1
loop_
 _symmetry_equiv_pos_site_id
 _symmetry_equiv_pos_as_xyz
  1  'x, y, z'
loop_
 _atom_site_type_symbol
 _atom_site_label
 _atom_site_symmetry_multiplicity
 _atom_site_fract_x
 _atom_site_fract_y
 _atom_site_fract_z
 _atom_site_occupancy
  Dy  Dy0  1  0.50000000  0.50000000  0.50000000  1
  Ni  Ni1  1  0.25000000  0.25000000  0.25000000  1
  Bi  Bi2  1  0.00000000  0.00000000  0.00000000  1
