# generated using pymatgen
data_Y2P4O13
_symmetry_space_group_name_H-M   'P 1'
_cell_length_a   9.35162600
_cell_length_b   9.35162600
_cell_length_c   8.57000744
_cell_angle_alpha   90.00000000
_cell_angle_beta   90.00000000
_cell_angle_gamma   135.93124048
_symmetry_Int_Tables_number   1
_chemical_formula_structural   Y2P4O13
_chemical_formula_sum   'Y4 P8 O26'
_cell_volume   521.27367140
_cell_formula_units_Z   2
loop_
 _symmetry_equiv_pos_site_id
 _symmetry_equiv_pos_as_xyz
  1  'x, y, z'
loop_
 _atom_site_type_symbol
 _atom_site_label
 _atom_site_symmetry_multiplicity
 _atom_site_fract_x
 _atom_site_fract_y
 _atom_site_fract_z
 _atom_site_occupancy
  Y  Y0  1  0.89637812  0.60276850  0.85372869  1
  Y  Y1  1  0.60276850  0.89637812  0.14627131  1
  Y  Y2  1  0.10362188  0.39723150  0.35372869  1
  Y  Y3  1  0.39723150  0.10362188  0.64627131  1
  P  P4  1  0.41820865  0.09957773  0.00135744  1
  P  P5  1  0.09957773  0.41820865  0.99864256  1
  P  P6  1  0.58179135  0.90042227  0.50135744  1
  P  P7  1  0.90042227  0.58179135  0.49864256  1
  P  P8  1  0.27831616  0.15195274  0.27338615  1
  P  P9  1  0.15195274  0.27831616  0.72661385  1
  P  P10  1  0.72168384  0.84804726  0.77338615  1
  P  P11  1  0.84804726  0.72168384  0.22661385  1
  O  O12  1  0.48222759  0.02741133  0.10787787  1
  O  O13  1  0.02741133  0.48222759  0.89212213  1
  O  O14  1  0.51777241  0.97258867  0.60787787  1
  O  O15  1  0.97258867  0.51777241  0.39212213  1
  O  O16  1  0.22624194  0.93021135  0.90384881  1
  O  O17  1  0.93021135  0.22624194  0.09615119  1
  O  O18  1  0.77375806  0.06978865  0.40384881  1
  O  O19  1  0.06978865  0.77375806  0.59615119  1
  O  O20  1  0.57906655  0.26299571  0.88350309  1
  O  O21  1  0.26299571  0.57906655  0.11649691  1
  O  O22  1  0.42093345  0.73700429  0.38350309  1
  O  O23  1  0.73700429  0.42093345  0.61649691  1
  O  O24  1  0.08585611  0.91414389  0.25000000  1
  O  O25  1  0.91414389  0.08585611  0.75000000  1
  O  O26  1  0.78822452  0.62081606  0.39399388  1
  O  O27  1  0.62081606  0.78822452  0.60600612  1
  O  O28  1  0.21177548  0.37918394  0.89399388  1
  O  O29  1  0.37918394  0.21177548  0.10600612  1
  O  O30  1  0.73993124  0.78164654  0.20218247  1
  O  O31  1  0.78164654  0.73993124  0.79781753  1
  O  O32  1  0.26006876  0.21835346  0.70218247  1
  O  O33  1  0.21835346  0.26006876  0.29781753  1
  O  O34  1  0.82567787  0.59417794  0.10429504  1
  O  O35  1  0.59417794  0.82567787  0.89570496  1
  O  O36  1  0.17432213  0.40582206  0.60429504  1
  O  O37  1  0.40582206  0.17432213  0.39570496  1
