# generated using pymatgen
data_H5NF2
_symmetry_space_group_name_H-M   'P 1'
_cell_length_a   3.55133965
_cell_length_b   8.13278487
_cell_length_c   8.29853196
_cell_angle_alpha   90.00000000
_cell_angle_beta   90.00000000
_cell_angle_gamma   90.00000000
_symmetry_Int_Tables_number   1
_chemical_formula_structural   H5NF2
_chemical_formula_sum   'H20 N4 F8'
_cell_volume   239.68053506
_cell_formula_units_Z   4
loop_
 _symmetry_equiv_pos_site_id
 _symmetry_equiv_pos_as_xyz
  1  'x, y, z'
loop_
 _atom_site_type_symbol
 _atom_site_label
 _atom_site_symmetry_multiplicity
 _atom_site_fract_x
 _atom_site_fract_y
 _atom_site_fract_z
 _atom_site_occupancy
  H  H0  1  0.37576299  0.79463780  0.34165790  1
  H  H1  1  0.37576299  0.70536220  0.15834210  1
  H  H2  1  0.62423701  0.29463780  0.15834210  1
  H  H3  1  0.62423701  0.20536220  0.34165790  1
  H  H4  1  0.62423701  0.20536220  0.65834210  1
  H  H5  1  0.62423701  0.29463780  0.84165790  1
  H  H6  1  0.37576299  0.70536220  0.84165790  1
  H  H7  1  0.37576299  0.79463780  0.65834210  1
  H  H8  1  0.71104674  0.84356210  0.20655140  1
  H  H9  1  0.71104674  0.65643790  0.29344860  1
  H  H10  1  0.28895326  0.34356210  0.29344860  1
  H  H11  1  0.28895326  0.15643790  0.20655140  1
  H  H12  1  -0.00000000  -0.00000000  -0.00000000  1
  H  H13  1  -0.00000000  0.50000000  0.50000000  1
  H  H14  1  -0.00000000  -0.00000000  0.50000000  1
  H  H15  1  -0.00000000  0.50000000  -0.00000000  1
  H  H16  1  0.71104674  0.84356210  0.79344860  1
  H  H17  1  0.71104674  0.65643790  0.70655140  1
  H  H18  1  0.28895326  0.34356210  0.70655140  1
  H  H19  1  0.28895326  0.15643790  0.79344860  1
  N  N20  1  0.54317175  0.75000000  0.75000000  1
  N  N21  1  0.45682825  0.25000000  0.75000000  1
  N  N22  1  0.45682825  0.25000000  0.25000000  1
  N  N23  1  0.54317175  0.75000000  0.25000000  1
  F  F24  1  -0.00000000  0.50000000  0.36272052  1
  F  F25  1  -0.00000000  -0.00000000  0.13727948  1
  F  F26  1  -0.00000000  0.50000000  0.63727948  1
  F  F27  1  -0.00000000  -0.00000000  0.86272052  1
  F  F28  1  0.09228254  0.63428459  -0.00000000  1
  F  F29  1  0.09228254  0.86571541  0.50000000  1
  F  F30  1  0.90771746  0.13428459  0.50000000  1
  F  F31  1  0.90771746  0.36571541  -0.00000000  1
