# generated using pymatgen
data_RbGa3
_symmetry_space_group_name_H-M   'P 1'
_cell_length_a   6.31483254
_cell_length_b   6.31483312
_cell_length_c   8.69416379
_cell_angle_alpha   111.29470437
_cell_angle_beta   111.29469497
_cell_angle_gamma   90.00000156
_symmetry_Int_Tables_number   1
_chemical_formula_structural   RbGa3
_chemical_formula_sum   'Rb3 Ga9'
_cell_volume   297.47879793
_cell_formula_units_Z   3
loop_
 _symmetry_equiv_pos_site_id
 _symmetry_equiv_pos_as_xyz
  1  'x, y, z'
loop_
 _atom_site_type_symbol
 _atom_site_label
 _atom_site_symmetry_multiplicity
 _atom_site_fract_x
 _atom_site_fract_y
 _atom_site_fract_z
 _atom_site_occupancy
  Rb  Rb0  1  0.00000000  0.00000000  -0.00000000  1
  Rb  Rb1  1  0.37185235  0.87185235  0.74370471  1
  Rb  Rb2  1  0.12814765  0.62814765  0.25629529  1
  Ga  Ga3  1  0.50000000  0.50000000  -0.00000000  1
  Ga  Ga4  1  0.43063896  0.22269158  0.44538315  1
  Ga  Ga5  1  0.77730842  0.56936104  0.55461685  1
  Ga  Ga6  1  0.77730842  0.98525781  0.55461685  1
  Ga  Ga7  1  0.01474219  0.22269158  0.44538315  1
  Ga  Ga8  1  0.69705898  0.39078659  0.78157517  1
  Ga  Ga9  1  0.60921341  0.30294102  0.21842483  1
  Ga  Ga10  1  0.60921341  0.91548380  0.21842483  1
  Ga  Ga11  1  0.08451620  0.39078659  0.78157517  1
