# generated using pymatgen
data_Er(FeB)2
_symmetry_space_group_name_H-M   'P 1'
_cell_length_a   3.45821415
_cell_length_b   3.45821371
_cell_length_c   5.33087899
_cell_angle_alpha   108.92662136
_cell_angle_beta   108.92661961
_cell_angle_gamma   89.99999889
_symmetry_Int_Tables_number   1
_chemical_formula_structural   Er(FeB)2
_chemical_formula_sum   'Er1 Fe2 B2'
_cell_volume   56.65027477
_cell_formula_units_Z   1
loop_
 _symmetry_equiv_pos_site_id
 _symmetry_equiv_pos_as_xyz
  1  'x, y, z'
loop_
 _atom_site_type_symbol
 _atom_site_label
 _atom_site_symmetry_multiplicity
 _atom_site_fract_x
 _atom_site_fract_y
 _atom_site_fract_z
 _atom_site_occupancy
  Er  Er0  1  -0.00000000  -0.00000000  -0.00000000  1
  Fe  Fe1  1  0.25000000  0.75000000  0.50000000  1
  Fe  Fe2  1  0.75000000  0.25000000  0.50000000  1
  B  B3  1  0.61329109  0.61329109  0.22658318  1
  B  B4  1  0.38670891  0.38670891  0.77341682  1
