# generated using pymatgen
data_Er3Pb4F17
_symmetry_space_group_name_H-M   'P 1'
_cell_length_a   9.01469990
_cell_length_b   9.01078754
_cell_length_c   9.06739212
_cell_angle_alpha   72.81389366
_cell_angle_beta   73.01971734
_cell_angle_gamma   72.96057160
_symmetry_Int_Tables_number   1
_chemical_formula_structural   Er3Pb4F17
_chemical_formula_sum   'Er6 Pb8 F34'
_cell_volume   655.52505686
_cell_formula_units_Z   2
loop_
 _symmetry_equiv_pos_site_id
 _symmetry_equiv_pos_as_xyz
  1  'x, y, z'
loop_
 _atom_site_type_symbol
 _atom_site_label
 _atom_site_symmetry_multiplicity
 _atom_site_fract_x
 _atom_site_fract_y
 _atom_site_fract_z
 _atom_site_occupancy
  Er  Er0  1  0.53175679  0.38960920  0.83952276  1
  Er  Er1  1  0.38924626  0.84160901  0.53243441  1
  Er  Er2  1  0.81793716  0.52676092  0.39309485  1
  Er  Er3  1  0.15842913  0.46926419  0.61081205  1
  Er  Er4  1  0.60809320  0.18313175  0.46405655  1
  Er  Er5  1  0.47468374  0.60284348  0.17495296  1
  Pb  Pb6  1  0.09901323  0.69874674  0.96207616  1
  Pb  Pb7  1  0.73235203  0.74139861  0.73651508  1
  Pb  Pb8  1  0.94296889  0.11287113  0.68378154  1
  Pb  Pb9  1  0.30353064  0.04447284  0.89787338  1
  Pb  Pb10  1  0.68187505  0.95230118  0.11313596  1
  Pb  Pb11  1  0.04092505  0.89395141  0.31021773  1
  Pb  Pb12  1  0.25881195  0.26815356  0.26440500  1
  Pb  Pb13  1  0.89066928  0.31519023  0.04976499  1
  F  F14  1  0.01079149  0.98664682  0.00867925  1
  F  F15  1  0.85766886  0.86796200  0.86325282  1
  F  F16  1  0.54387173  0.82106064  0.98081362  1
  F  F17  1  0.64270871  0.51150353  0.95377321  1
  F  F18  1  0.97920526  0.54935827  0.82268384  1
  F  F19  1  0.74324973  0.20750923  0.92504091  1
  F  F20  1  0.20900718  0.91919826  0.74230002  1
  F  F21  1  0.50749376  0.96427786  0.64208325  1
  F  F22  1  0.45634596  0.64990326  0.73476877  1
  F  F23  1  0.81771198  0.98102618  0.54752556  1
  F  F24  1  0.74499159  0.44480884  0.65602474  1
  F  F25  1  0.30450015  0.40455562  0.78886738  1
  F  F26  1  0.95123186  0.64230242  0.51171135  1
  F  F27  1  0.60252989  0.20328409  0.70117721  1
  F  F28  1  0.64977091  0.74456116  0.45277552  1
  F  F29  1  0.07583809  0.25777557  0.79087018  1
  F  F30  1  0.21016714  0.69883647  0.58591556  1
  F  F31  1  0.82869859  0.27707590  0.39618286  1
  F  F32  1  0.56139890  0.47163763  0.44556443  1
  F  F33  1  0.91415457  0.73975184  0.21920160  1
  F  F34  1  0.34614425  0.26268938  0.54524644  1
  F  F35  1  0.41674760  0.79730749  0.29868587  1
  F  F36  1  0.03995644  0.35926406  0.49049729  1
  F  F37  1  0.72039923  0.59700348  0.17572834  1
  F  F38  1  0.26139309  0.54301889  0.35091205  1
  F  F39  1  0.17637463  0.02291646  0.45419447  1
  F  F40  1  0.55612552  0.33708519  0.23592473  1
  F  F41  1  0.48920332  0.04807588  0.35889850  1
  F  F42  1  0.78785629  0.07717183  0.25912541  1
  F  F43  1  0.26181101  0.78268653  0.08972788  1
  F  F44  1  0.02092581  0.45544816  0.17979786  1
  F  F45  1  0.35709630  0.49244469  0.04273630  1
  F  F46  1  0.45143431  0.17736974  0.02071738  1
  F  F47  1  0.13690341  0.14018238  0.13794896  1
