# generated using pymatgen
data_BaZn5
_symmetry_space_group_name_H-M   'P 1'
_cell_length_a   5.30989066
_cell_length_b   6.80356792
_cell_length_c   6.80356292
_cell_angle_alpha   104.98374146
_cell_angle_beta   90.00003651
_cell_angle_gamma   90.00032882
_symmetry_Int_Tables_number   1
_chemical_formula_structural   BaZn5
_chemical_formula_sum   'Ba2 Zn10'
_cell_volume   237.42994368
_cell_formula_units_Z   2
loop_
 _symmetry_equiv_pos_site_id
 _symmetry_equiv_pos_as_xyz
  1  'x, y, z'
loop_
 _atom_site_type_symbol
 _atom_site_label
 _atom_site_symmetry_multiplicity
 _atom_site_fract_x
 _atom_site_fract_y
 _atom_site_fract_z
 _atom_site_occupancy
  Ba  Ba0  1  0.74999969  0.33565091  0.33565086  1
  Ba  Ba1  1  0.25000031  0.66434909  0.66434914  1
  Zn  Zn2  1  0.50000122  0.20205491  0.79794464  1
  Zn  Zn3  1  0.00000146  0.79795070  0.20205042  1
  Zn  Zn4  1  0.24999906  0.07976116  0.07976111  1
  Zn  Zn5  1  0.75000094  0.92023884  0.92023889  1
  Zn  Zn6  1  0.24999916  0.46651791  0.07833273  1
  Zn  Zn7  1  0.75000084  0.53348209  0.92166627  1
  Zn  Zn8  1  0.25000160  0.07833372  0.46651619  1
  Zn  Zn9  1  0.74999840  0.92166628  0.53348381  1
  Zn  Zn10  1  -0.00000146  0.20204930  0.79794958  1
  Zn  Zn11  1  0.49999878  0.79794509  0.20205536  1
