# generated using pymatgen
data_Ca3(GaPd)2
_symmetry_space_group_name_H-M   'P 1'
_cell_length_a   5.79683036
_cell_length_b   7.89339315
_cell_length_c   13.83845878
_cell_angle_alpha   90.00000000
_cell_angle_beta   90.00000000
_cell_angle_gamma   90.00000000
_symmetry_Int_Tables_number   1
_chemical_formula_structural   Ca3(GaPd)2
_chemical_formula_sum   'Ca12 Ga8 Pd8'
_cell_volume   633.20166792
_cell_formula_units_Z   4
loop_
 _symmetry_equiv_pos_site_id
 _symmetry_equiv_pos_as_xyz
  1  'x, y, z'
loop_
 _atom_site_type_symbol
 _atom_site_label
 _atom_site_symmetry_multiplicity
 _atom_site_fract_x
 _atom_site_fract_y
 _atom_site_fract_z
 _atom_site_occupancy
  Ca  Ca0  1  0.14080317  0.60614244  0.09909663  1
  Ca  Ca1  1  0.14080317  0.89385756  0.90090337  1
  Ca  Ca2  1  0.85919683  0.10614244  0.40090337  1
  Ca  Ca3  1  0.85919683  0.39385756  0.59909663  1
  Ca  Ca4  1  0.85919683  0.39385756  0.90090337  1
  Ca  Ca5  1  0.85919683  0.10614244  0.09909663  1
  Ca  Ca6  1  0.14080317  0.89385756  0.59909663  1
  Ca  Ca7  1  0.14080317  0.60614244  0.40090337  1
  Ca  Ca8  1  0.36412591  0.25603118  0.25000000  1
  Ca  Ca9  1  0.36412591  0.24396882  0.75000000  1
  Ca  Ca10  1  0.63587409  0.75603118  0.25000000  1
  Ca  Ca11  1  0.63587409  0.74396882  0.75000000  1
  Ga  Ga12  1  0.37229022  0.25000000  -0.00000000  1
  Ga  Ga13  1  0.62770978  0.75000000  0.50000000  1
  Ga  Ga14  1  0.62770978  0.75000000  -0.00000000  1
  Ga  Ga15  1  0.37229022  0.25000000  0.50000000  1
  Ga  Ga16  1  0.85022964  0.40620453  0.25000000  1
  Ga  Ga17  1  0.85022964  0.09379547  0.75000000  1
  Ga  Ga18  1  0.14977036  0.90620453  0.25000000  1
  Ga  Ga19  1  0.14977036  0.59379547  0.75000000  1
  Pd  Pd20  1  0.63273945  0.46775484  0.09174470  1
  Pd  Pd21  1  0.63273945  0.03224516  0.90825530  1
  Pd  Pd22  1  0.36726055  0.96775484  0.40825530  1
  Pd  Pd23  1  0.36726055  0.53224516  0.59174470  1
  Pd  Pd24  1  0.36726055  0.53224516  0.90825530  1
  Pd  Pd25  1  0.36726055  0.96775484  0.09174470  1
  Pd  Pd26  1  0.63273945  0.03224516  0.59174470  1
  Pd  Pd27  1  0.63273945  0.46775484  0.40825530  1
