# generated using pymatgen
data_RbSO3
_symmetry_space_group_name_H-M   'P 1'
_cell_length_a   10.12309926
_cell_length_b   10.12310853
_cell_length_c   6.45371747
_cell_angle_alpha   89.99853468
_cell_angle_beta   90.00193683
_cell_angle_gamma   120.00038177
_symmetry_Int_Tables_number   1
_chemical_formula_structural   RbSO3
_chemical_formula_sum   'Rb6 S6 O18'
_cell_volume   572.75158272
_cell_formula_units_Z   6
loop_
 _symmetry_equiv_pos_site_id
 _symmetry_equiv_pos_as_xyz
  1  'x, y, z'
loop_
 _atom_site_type_symbol
 _atom_site_label
 _atom_site_symmetry_multiplicity
 _atom_site_fract_x
 _atom_site_fract_y
 _atom_site_fract_z
 _atom_site_occupancy
  Rb  Rb0  1  0.29265501  0.00002202  0.49995086  1
  Rb  Rb1  1  -0.00004131  0.29261884  0.49997033  1
  Rb  Rb2  1  0.70738426  0.70735592  0.49996786  1
  Rb  Rb3  1  0.61789343  -0.00000867  0.00001800  1
  Rb  Rb4  1  0.00000511  0.61788978  0.00000041  1
  Rb  Rb5  1  0.38210369  0.38211143  0.00001941  1
  S  S6  1  -0.00000097  -0.00000470  0.17101292  1
  S  S7  1  -0.00000279  -0.00000110  0.82897677  1
  S  S8  1  0.33334015  0.66666924  0.58788695  1
  S  S9  1  0.66666978  0.33334493  0.41212239  1
  S  S10  1  0.33333190  0.66666371  0.25345922  1
  S  S11  1  0.66666281  0.33332710  0.74657326  1
  O  O12  1  0.20703371  0.51754093  0.19462608  1
  O  O13  1  0.48244458  0.68948795  0.19462892  1
  O  O14  1  0.31049516  0.79295175  0.19461462  1
  O  O15  1  0.68948538  0.48245283  0.80537995  1
  O  O16  1  0.79296713  0.31050348  0.80539444  1
  O  O17  1  0.51753664  0.20702763  0.80538146  1
  O  O18  1  0.17931500  0.63025676  0.64166728  1
  O  O19  1  0.36976000  0.54905740  0.64166104  1
  O  O20  1  0.45095060  0.82069184  0.64165215  1
  O  O21  1  0.54900438  0.36969298  0.35835670  1
  O  O22  1  0.82067341  0.45100038  0.35835219  1
  O  O23  1  0.63032106  0.17932888  0.35834621  1
  O  O24  1  0.14687451  0.12908410  0.23017092  1
  O  O25  1  0.87091669  0.01778786  0.23016759  1
  O  O26  1  0.98221906  0.85313110  0.23017325  1
  O  O27  1  0.01782037  0.87094136  0.76982301  1
  O  O28  1  0.85311803  0.98218674  0.76981550  1
  O  O29  1  0.12906423  0.14688652  0.76982834  1
