# generated using pymatgen
data_CoO2
_symmetry_space_group_name_H-M   'P 1'
_cell_length_a   2.78415875
_cell_length_b   2.78415897
_cell_length_c   8.71223802
_cell_angle_alpha   90.00000000
_cell_angle_beta   90.00000000
_cell_angle_gamma   60.00000253
_symmetry_Int_Tables_number   1
_chemical_formula_structural   CoO2
_chemical_formula_sum   'Co2 O4'
_cell_volume   58.48552582
_cell_formula_units_Z   2
loop_
 _symmetry_equiv_pos_site_id
 _symmetry_equiv_pos_as_xyz
  1  'x, y, z'
loop_
 _atom_site_type_symbol
 _atom_site_label
 _atom_site_symmetry_multiplicity
 _atom_site_fract_x
 _atom_site_fract_y
 _atom_site_fract_z
 _atom_site_occupancy
  Co  Co0  1  -0.00000000  0.00000000  0.00000000  1
  Co  Co1  1  -0.00000000  0.00000000  0.50000000  1
  O  O2  1  0.33333400  0.33333300  0.39307576  1
  O  O3  1  0.33333400  0.33333300  0.89290245  1
  O  O4  1  0.66666600  0.66666700  0.10709755  1
  O  O5  1  0.66666600  0.66666700  0.60692424  1
