# generated using pymatgen
data_ZrBe13
_symmetry_space_group_name_H-M   'P 1'
_cell_length_a   7.07550274
_cell_length_b   7.07550028
_cell_length_c   7.07546843
_cell_angle_alpha   60.00014888
_cell_angle_beta   60.00016037
_cell_angle_gamma   60.00036663
_symmetry_Int_Tables_number   1
_chemical_formula_structural   ZrBe13
_chemical_formula_sum   'Zr2 Be26'
_cell_volume   250.47066814
_cell_formula_units_Z   2
loop_
 _symmetry_equiv_pos_site_id
 _symmetry_equiv_pos_as_xyz
  1  'x, y, z'
loop_
 _atom_site_type_symbol
 _atom_site_label
 _atom_site_symmetry_multiplicity
 _atom_site_fract_x
 _atom_site_fract_y
 _atom_site_fract_z
 _atom_site_occupancy
  Zr  Zr0  1  0.25000000  0.25000000  0.25000000  1
  Zr  Zr1  1  0.75000000  0.75000000  0.75000000  1
  Be  Be2  1  -0.00000000  -0.00000000  0.00000000  1
  Be  Be3  1  0.50000000  0.50000000  0.50000000  1
  Be  Be4  1  0.29363046  0.06180209  0.93819891  1
  Be  Be5  1  0.43819891  0.56180109  0.79363046  1
  Be  Be6  1  0.79363146  0.20636854  0.43819891  1
  Be  Be7  1  0.43819891  0.79363146  0.20636854  1
  Be  Be8  1  0.56180109  0.20636854  0.79363146  1
  Be  Be9  1  0.56180209  0.79363046  0.43819891  1
  Be  Be10  1  0.79363046  0.56180209  0.20636854  1
  Be  Be11  1  0.93819891  0.29363146  0.06180109  1
  Be  Be12  1  0.06180109  0.93819891  0.29363146  1
  Be  Be13  1  0.70636854  0.29363146  0.93819891  1
  Be  Be14  1  0.06180109  0.70636854  0.93819891  1
  Be  Be15  1  0.70636854  0.06180109  0.29363146  1
  Be  Be16  1  0.93819891  0.06180109  0.70636854  1
  Be  Be17  1  0.29363146  0.93819891  0.70636854  1
  Be  Be18  1  0.29363146  0.70636854  0.06180109  1
  Be  Be19  1  0.79363146  0.43819891  0.56180109  1
  Be  Be20  1  0.20636854  0.79363146  0.56180109  1
  Be  Be21  1  0.20636954  0.43819791  0.79363146  1
  Be  Be22  1  0.43819791  0.20636954  0.56180109  1
  Be  Be23  1  0.56180109  0.43819891  0.20636954  1
  Be  Be24  1  0.20636854  0.56180109  0.43819891  1
  Be  Be25  1  0.93819791  0.70636954  0.29363146  1
  Be  Be26  1  0.70636954  0.93819791  0.06180109  1
  Be  Be27  1  0.06180209  0.29363046  0.70636854  1
