# generated using pymatgen
data_Nd(CoGe)2
_symmetry_space_group_name_H-M   'P 1'
_cell_length_a   3.98797227
_cell_length_b   3.98797081
_cell_length_c   5.85238651
_cell_angle_alpha   109.92034950
_cell_angle_beta   109.92033961
_cell_angle_gamma   89.99997652
_symmetry_Int_Tables_number   1
_chemical_formula_structural   Nd(CoGe)2
_chemical_formula_sum   'Nd1 Co2 Ge2'
_cell_volume   81.55851560
_cell_formula_units_Z   1
loop_
 _symmetry_equiv_pos_site_id
 _symmetry_equiv_pos_as_xyz
  1  'x, y, z'
loop_
 _atom_site_type_symbol
 _atom_site_label
 _atom_site_symmetry_multiplicity
 _atom_site_fract_x
 _atom_site_fract_y
 _atom_site_fract_z
 _atom_site_occupancy
  Nd  Nd0  1  -0.00000000  -0.00000000  -0.00000000  1
  Co  Co1  1  0.75000000  0.25000000  0.50000000  1
  Co  Co2  1  0.25000000  0.75000000  0.50000000  1
  Ge  Ge3  1  0.63295938  0.63295938  0.26591776  1
  Ge  Ge4  1  0.36704062  0.36704062  0.73408224  1
