# generated using pymatgen
data_LaTe2Se
_symmetry_space_group_name_H-M   'P 1'
_cell_length_a   4.33602025
_cell_length_b   4.33742322
_cell_length_c   13.25551704
_cell_angle_alpha   90.00000000
_cell_angle_beta   99.41330629
_cell_angle_gamma   90.00000000
_symmetry_Int_Tables_number   1
_chemical_formula_structural   LaTe2Se
_chemical_formula_sum   'La2 Te4 Se2'
_cell_volume   245.94155920
_cell_formula_units_Z   2
loop_
 _symmetry_equiv_pos_site_id
 _symmetry_equiv_pos_as_xyz
  1  'x, y, z'
loop_
 _atom_site_type_symbol
 _atom_site_label
 _atom_site_symmetry_multiplicity
 _atom_site_fract_x
 _atom_site_fract_y
 _atom_site_fract_z
 _atom_site_occupancy
  La  La0  1  0.17845445  0.75000000  0.35690890  1
  La  La1  1  0.82154500  0.25000000  0.64309099  1
  Te  Te2  1  0.57505997  0.75000000  0.15011894  1
  Te  Te3  1  0.42494425  0.25000000  0.84988851  1
  Te  Te4  1  0.07502133  0.25000000  0.15004266  1
  Te  Te5  1  0.92497138  0.75000000  0.84994276  1
  Se  Se6  1  0.70452315  0.25000000  0.40904530  1
  Se  Se7  1  0.29548046  0.75000000  0.59096193  1
