# generated using pymatgen
data_TbCoSi2
_symmetry_space_group_name_H-M   'P 1'
_cell_length_a   3.95930328
_cell_length_b   4.03068144
_cell_length_c   8.33989471
_cell_angle_alpha   104.03959340
_cell_angle_beta   89.99999972
_cell_angle_gamma   90.00000032
_symmetry_Int_Tables_number   1
_chemical_formula_structural   TbCoSi2
_chemical_formula_sum   'Tb2 Co2 Si4'
_cell_volume   129.11806088
_cell_formula_units_Z   2
loop_
 _symmetry_equiv_pos_site_id
 _symmetry_equiv_pos_as_xyz
  1  'x, y, z'
loop_
 _atom_site_type_symbol
 _atom_site_label
 _atom_site_symmetry_multiplicity
 _atom_site_fract_x
 _atom_site_fract_y
 _atom_site_fract_z
 _atom_site_occupancy
  Tb  Tb0  1  0.25000003  0.89161249  0.78345773  1
  Tb  Tb1  1  0.75000004  0.10839247  0.21655816  1
  Co  Co2  1  0.74999996  0.32027967  0.64067798  1
  Co  Co3  1  0.25000002  0.67970064  0.35926747  1
  Si  Si4  1  0.24999998  0.25030730  0.50033853  1
  Si  Si5  1  0.75000001  0.74969763  0.49967918  1
  Si  Si6  1  0.74999997  0.45695061  0.91350516  1
  Si  Si7  1  0.24999998  0.54305819  0.08651579  1
