# generated using pymatgen
data_RbAlF4
_symmetry_space_group_name_H-M   'P 1'
_cell_length_a   6.25700599
_cell_length_b   7.20703511
_cell_length_c   7.21524016
_cell_angle_alpha   90.00000000
_cell_angle_beta   90.00000000
_cell_angle_gamma   90.00000000
_symmetry_Int_Tables_number   1
_chemical_formula_structural   RbAlF4
_chemical_formula_sum   'Rb4 Al4 F16'
_cell_volume   325.36737216
_cell_formula_units_Z   4
loop_
 _symmetry_equiv_pos_site_id
 _symmetry_equiv_pos_as_xyz
  1  'x, y, z'
loop_
 _atom_site_type_symbol
 _atom_site_label
 _atom_site_symmetry_multiplicity
 _atom_site_fract_x
 _atom_site_fract_y
 _atom_site_fract_z
 _atom_site_occupancy
  Rb  Rb0  1  0.53023761  0.50000000  -0.00000000  1
  Rb  Rb1  1  0.46976239  -0.00000000  0.50000000  1
  Rb  Rb2  1  0.47916800  -0.00000000  -0.00000000  1
  Rb  Rb3  1  0.52083200  0.50000000  0.50000000  1
  Al  Al4  1  -0.00000000  0.75000000  0.25000000  1
  Al  Al5  1  -0.00000000  0.25000000  0.75000000  1
  Al  Al6  1  -0.00000000  0.25000000  0.25000000  1
  Al  Al7  1  -0.00000000  0.75000000  0.75000000  1
  F  F8  1  0.71959603  0.77177791  0.25376579  1
  F  F9  1  0.71959603  0.22822209  0.74623421  1
  F  F10  1  0.28040397  0.27177791  0.24623421  1
  F  F11  1  0.28040397  0.72822209  0.75376579  1
  F  F12  1  0.28040397  0.72822209  0.24623421  1
  F  F13  1  0.28040397  0.27177791  0.75376579  1
  F  F14  1  0.71959603  0.22822209  0.25376579  1
  F  F15  1  0.71959603  0.77177791  0.74623421  1
  F  F16  1  0.01047056  0.79356911  0.50000000  1
  F  F17  1  0.01047056  0.20643089  0.50000000  1
  F  F18  1  0.98952944  0.29356911  -0.00000000  1
  F  F19  1  0.98952944  0.70643089  -0.00000000  1
  F  F20  1  0.96988309  0.50000000  0.70630898  1
  F  F21  1  0.96988309  0.50000000  0.29369102  1
  F  F22  1  0.03011691  -0.00000000  0.79369102  1
  F  F23  1  0.03011691  -0.00000000  0.20630898  1
