# generated using pymatgen
data_DyNiC2
_symmetry_space_group_name_H-M   'P 1'
_cell_length_a   3.73490054
_cell_length_b   3.73490054
_cell_length_c   3.59002481
_cell_angle_alpha   90.00000000
_cell_angle_beta   90.00000000
_cell_angle_gamma   106.28684858
_symmetry_Int_Tables_number   1
_chemical_formula_structural   DyNiC2
_chemical_formula_sum   'Dy1 Ni1 C2'
_cell_volume   48.06930148
_cell_formula_units_Z   1
loop_
 _symmetry_equiv_pos_site_id
 _symmetry_equiv_pos_as_xyz
  1  'x, y, z'
loop_
 _atom_site_type_symbol
 _atom_site_label
 _atom_site_symmetry_multiplicity
 _atom_site_fract_x
 _atom_site_fract_y
 _atom_site_fract_z
 _atom_site_occupancy
  Dy  Dy0  1  0.99762852  0.00237148  0.00000000  1
  Ni  Ni1  1  0.38745550  0.61254450  0.50000000  1
  C  C2  1  0.54461677  0.14970179  0.50000000  1
  C  C3  1  0.85029821  0.45538323  0.50000000  1
