# generated using pymatgen
data_BaPdS2
_symmetry_space_group_name_H-M   'P 1'
_cell_length_a   5.65901306
_cell_length_b   6.38842382
_cell_length_c   6.38842362
_cell_angle_alpha   115.32727009
_cell_angle_beta   90.00000000
_cell_angle_gamma   90.00000000
_symmetry_Int_Tables_number   1
_chemical_formula_structural   BaPdS2
_chemical_formula_sum   'Ba2 Pd2 S4'
_cell_volume   208.75574740
_cell_formula_units_Z   2
loop_
 _symmetry_equiv_pos_site_id
 _symmetry_equiv_pos_as_xyz
  1  'x, y, z'
loop_
 _atom_site_type_symbol
 _atom_site_label
 _atom_site_symmetry_multiplicity
 _atom_site_fract_x
 _atom_site_fract_y
 _atom_site_fract_z
 _atom_site_occupancy
  Ba  Ba0  1  0.75000000  0.34854912  0.65145088  1
  Ba  Ba1  1  0.25000000  0.65145088  0.34854912  1
  Pd  Pd2  1  0.50000000  -0.00000000  -0.00000000  1
  Pd  Pd3  1  -0.00000000  -0.00000000  -0.00000000  1
  S  S4  1  0.75000000  0.85884041  0.67020367  1
  S  S5  1  0.25000000  0.14115959  0.32979633  1
  S  S6  1  0.75000000  0.32979633  0.14115959  1
  S  S7  1  0.25000000  0.67020367  0.85884041  1
