# generated using pymatgen
data_Ca(MnSb)2
_symmetry_space_group_name_H-M   'P 1'
_cell_length_a   4.47528558
_cell_length_b   4.47522477
_cell_length_c   7.44028800
_cell_angle_alpha   90.00018065
_cell_angle_beta   89.99964503
_cell_angle_gamma   120.00106693
_symmetry_Int_Tables_number   1
_chemical_formula_structural   Ca(MnSb)2
_chemical_formula_sum   'Ca1 Mn2 Sb2'
_cell_volume   129.04801097
_cell_formula_units_Z   1
loop_
 _symmetry_equiv_pos_site_id
 _symmetry_equiv_pos_as_xyz
  1  'x, y, z'
loop_
 _atom_site_type_symbol
 _atom_site_label
 _atom_site_symmetry_multiplicity
 _atom_site_fract_x
 _atom_site_fract_y
 _atom_site_fract_z
 _atom_site_occupancy
  Ca  Ca0  1  0.99997300  0.99997200  0.99999800  1
  Mn  Mn1  1  0.66664100  0.33330200  0.61383500  1
  Mn  Mn2  1  0.33328000  0.66662600  0.38620900  1
  Sb  Sb3  1  0.33329000  0.66662800  0.74262200  1
  Sb  Sb4  1  0.66661600  0.33327200  0.25733600  1
