# generated using pymatgen
data_Ca11(CN5)2
_symmetry_space_group_name_H-M   'P 1'
_cell_length_a   14.48271800
_cell_length_b   14.48271800
_cell_length_c   3.60494396
_cell_angle_alpha   90.00000000
_cell_angle_beta   90.00000000
_cell_angle_gamma   90.00000000
_symmetry_Int_Tables_number   1
_chemical_formula_structural   Ca11(CN5)2
_chemical_formula_sum   'Ca22 C4 N20'
_cell_volume   756.13382447
_cell_formula_units_Z   2
loop_
 _symmetry_equiv_pos_site_id
 _symmetry_equiv_pos_as_xyz
  1  'x, y, z'
loop_
 _atom_site_type_symbol
 _atom_site_label
 _atom_site_symmetry_multiplicity
 _atom_site_fract_x
 _atom_site_fract_y
 _atom_site_fract_z
 _atom_site_occupancy
  Ca  Ca0  1  0.60701724  0.88121061  0.00000000  1
  Ca  Ca1  1  0.39298276  0.11878939  0.00000000  1
  Ca  Ca2  1  0.61878939  0.10701724  0.50000000  1
  Ca  Ca3  1  0.38121061  0.89298276  0.50000000  1
  Ca  Ca4  1  0.88121061  0.60701724  0.00000000  1
  Ca  Ca5  1  0.10701724  0.61878939  0.50000000  1
  Ca  Ca6  1  0.89298276  0.38121061  0.50000000  1
  Ca  Ca7  1  0.11878939  0.39298276  0.00000000  1
  Ca  Ca8  1  0.16710545  0.83289455  0.00000000  1
  Ca  Ca9  1  0.33289455  0.33289455  0.50000000  1
  Ca  Ca10  1  0.66710545  0.66710545  0.50000000  1
  Ca  Ca11  1  0.83289455  0.16710545  0.00000000  1
  Ca  Ca12  1  0.70474430  0.47990746  0.00000000  1
  Ca  Ca13  1  0.29525570  0.52009254  0.00000000  1
  Ca  Ca14  1  0.02009254  0.20474430  0.50000000  1
  Ca  Ca15  1  0.97990746  0.79525570  0.50000000  1
  Ca  Ca16  1  0.47990746  0.70474430  0.00000000  1
  Ca  Ca17  1  0.20474430  0.02009254  0.50000000  1
  Ca  Ca18  1  0.79525570  0.97990746  0.50000000  1
  Ca  Ca19  1  0.52009254  0.29525570  0.00000000  1
  Ca  Ca20  1  0.50000000  0.50000000  0.50000000  1
  Ca  Ca21  1  0.00000000  0.00000000  0.00000000  1
  C  C22  1  0.81600365  0.81600365  0.00000000  1
  C  C23  1  0.31600365  0.68399635  0.50000000  1
  C  C24  1  0.68399635  0.31600365  0.50000000  1
  C  C25  1  0.18399635  0.18399635  0.00000000  1
  N  N26  1  0.87645852  0.87645852  0.00000000  1
  N  N27  1  0.37645852  0.62354148  0.50000000  1
  N  N28  1  0.62354148  0.37645852  0.50000000  1
  N  N29  1  0.12354148  0.12354148  0.00000000  1
  N  N30  1  0.75600022  0.75600022  0.00000000  1
  N  N31  1  0.25600022  0.74399978  0.50000000  1
  N  N32  1  0.74399978  0.25600022  0.50000000  1
  N  N33  1  0.24399978  0.24399978  0.00000000  1
  N  N34  1  0.31091390  0.97189504  0.00000000  1
  N  N35  1  0.68908610  0.02810496  0.00000000  1
  N  N36  1  0.52810496  0.81091390  0.50000000  1
  N  N37  1  0.47189504  0.18908610  0.50000000  1
  N  N38  1  0.97189504  0.31091390  0.00000000  1
  N  N39  1  0.81091390  0.52810496  0.50000000  1
  N  N40  1  0.18908610  0.47189504  0.50000000  1
  N  N41  1  0.02810496  0.68908610  0.00000000  1
  N  N42  1  0.58959462  0.58959462  0.00000000  1
  N  N43  1  0.08959462  0.91040538  0.50000000  1
  N  N44  1  0.41040538  0.41040538  0.00000000  1
  N  N45  1  0.91040538  0.08959462  0.50000000  1
