# generated using pymatgen
data_BaVS3
_symmetry_space_group_name_H-M   'P 1'
_cell_length_a   6.72863953
_cell_length_b   6.72825004
_cell_length_c   5.77939096
_cell_angle_alpha   90.05318513
_cell_angle_beta   90.31876557
_cell_angle_gamma   119.99338589
_symmetry_Int_Tables_number   1
_chemical_formula_structural   BaVS3
_chemical_formula_sum   'Ba2 V2 S6'
_cell_volume   226.60022022
_cell_formula_units_Z   2
loop_
 _symmetry_equiv_pos_site_id
 _symmetry_equiv_pos_as_xyz
  1  'x, y, z'
loop_
 _atom_site_type_symbol
 _atom_site_label
 _atom_site_symmetry_multiplicity
 _atom_site_fract_x
 _atom_site_fract_y
 _atom_site_fract_z
 _atom_site_occupancy
  Ba  Ba0  1  0.66667494  0.33333529  0.24999553  1
  Ba  Ba1  1  0.33332481  0.66666469  0.75000424  1
  V  V2  1  -0.00000001  -0.00000071  0.50000050  1
  V  V3  1  0.00000008  0.00000097  0.00000016  1
  S  S4  1  0.83779292  0.67563113  0.75083186  1
  S  S5  1  0.16219554  0.83782767  0.24946517  1
  S  S6  1  0.67564001  0.83781409  0.25128742  1
  S  S7  1  0.32436026  0.16218676  0.74871228  1
  S  S8  1  0.16220761  0.32436852  0.24916836  1
  S  S9  1  0.83780384  0.16217161  0.75053447  1
