# generated using pymatgen
data_Yb(SiPt)2
_symmetry_space_group_name_H-M   'P 1'
_cell_length_a   4.13729889
_cell_length_b   4.13729889
_cell_length_c   5.69830206
_cell_angle_alpha   111.28634014
_cell_angle_beta   111.28634014
_cell_angle_gamma   90.00000000
_symmetry_Int_Tables_number   1
_chemical_formula_structural   Yb(SiPt)2
_chemical_formula_sum   'Yb1 Si2 Pt2'
_cell_volume   83.70318309
_cell_formula_units_Z   1
loop_
 _symmetry_equiv_pos_site_id
 _symmetry_equiv_pos_as_xyz
  1  'x, y, z'
loop_
 _atom_site_type_symbol
 _atom_site_label
 _atom_site_symmetry_multiplicity
 _atom_site_fract_x
 _atom_site_fract_y
 _atom_site_fract_z
 _atom_site_occupancy
  Yb  Yb0  1  0.00000000  0.00000000  0.00000000  1
  Si  Si1  1  0.61661500  0.61661500  0.23323001  1
  Si  Si2  1  0.38338500  0.38338500  0.76676999  1
  Pt  Pt3  1  0.25000000  0.75000000  0.50000000  1
  Pt  Pt4  1  0.75000000  0.25000000  0.50000000  1
