# generated using pymatgen
data_PrPO4
_symmetry_space_group_name_H-M   'P 1'
_cell_length_a   7.01711242
_cell_length_b   6.44414245
_cell_length_c   8.19754171
_cell_angle_alpha   53.65782875
_cell_angle_beta   90.00000000
_cell_angle_gamma   90.00000000
_symmetry_Int_Tables_number   1
_chemical_formula_structural   PrPO4
_chemical_formula_sum   'Pr4 P4 O16'
_cell_volume   298.58542810
_cell_formula_units_Z   4
loop_
 _symmetry_equiv_pos_site_id
 _symmetry_equiv_pos_as_xyz
  1  'x, y, z'
loop_
 _atom_site_type_symbol
 _atom_site_label
 _atom_site_symmetry_multiplicity
 _atom_site_fract_x
 _atom_site_fract_y
 _atom_site_fract_z
 _atom_site_occupancy
  Pr  Pr0  1  0.65823421  0.18162990  0.21819848  1
  Pr  Pr1  1  0.15823421  0.81837010  0.28180152  1
  Pr  Pr2  1  0.34176579  0.81837010  0.78180152  1
  Pr  Pr3  1  0.84176579  0.18162990  0.71819848  1
  P  P4  1  0.66260746  0.69058021  0.19664178  1
  P  P5  1  0.16260746  0.30941979  0.30335822  1
  P  P6  1  0.33739254  0.30941979  0.80335822  1
  P  P7  1  0.83739254  0.69058021  0.69664178  1
  O  O8  1  0.71301162  0.41501531  0.37401452  1
  O  O9  1  0.21301162  0.58498469  0.12598548  1
  O  O10  1  0.28698838  0.58498469  0.62598548  1
  O  O11  1  0.78698838  0.41501531  0.87401452  1
  O  O12  1  0.60581955  0.66664826  0.02726116  1
  O  O13  1  0.10581955  0.33335174  0.47273884  1
  O  O14  1  0.39418045  0.33335174  0.97273884  1
  O  O15  1  0.89418045  0.66664826  0.52726116  1
  O  O16  1  0.99414391  0.80636810  0.75059311  1
  O  O17  1  0.49414391  0.19363190  0.74940689  1
  O  O18  1  0.00585609  0.19363190  0.24940689  1
  O  O19  1  0.50585609  0.80636810  0.25059311  1
  O  O20  1  0.66843728  0.88198808  0.61927191  1
  O  O21  1  0.16843728  0.11801192  0.88072809  1
  O  O22  1  0.33156272  0.11801192  0.38072809  1
  O  O23  1  0.83156272  0.88198808  0.11927191  1
