# generated using pymatgen
data_HfSiO4
_symmetry_space_group_name_H-M   'P 1'
_cell_length_a   5.51065825
_cell_length_b   5.51065727
_cell_length_c   5.51065683
_cell_angle_alpha   107.03008734
_cell_angle_beta   107.03006910
_cell_angle_gamma   114.47226176
_symmetry_Int_Tables_number   1
_chemical_formula_structural   HfSiO4
_chemical_formula_sum   'Hf2 Si2 O8'
_cell_volume   128.07884535
_cell_formula_units_Z   2
loop_
 _symmetry_equiv_pos_site_id
 _symmetry_equiv_pos_as_xyz
  1  'x, y, z'
loop_
 _atom_site_type_symbol
 _atom_site_label
 _atom_site_symmetry_multiplicity
 _atom_site_fract_x
 _atom_site_fract_y
 _atom_site_fract_z
 _atom_site_occupancy
  Hf  Hf0  1  0.12500000  0.87500000  0.25000000  1
  Hf  Hf1  1  0.87500000  0.12500000  0.75000000  1
  Si  Si2  1  0.37500000  0.62500000  0.75000000  1
  Si  Si3  1  0.62500000  0.37500000  0.25000000  1
  O  O4  1  0.80579923  0.37068602  0.06488678  1
  O  O5  1  0.74091245  0.80579923  0.93511322  1
  O  O6  1  0.37068602  0.80579923  0.56488678  1
  O  O7  1  0.80579923  0.74091245  0.43511322  1
  O  O8  1  0.25908755  0.19420177  0.06488678  1
  O  O9  1  0.19420177  0.62931398  0.93511322  1
  O  O10  1  0.19420177  0.25908755  0.56488678  1
  O  O11  1  0.62931398  0.19420177  0.43511322  1
