# generated using pymatgen
data_Tm(SiNi)2
_symmetry_space_group_name_H-M   'P 1'
_cell_length_a   3.90242640
_cell_length_b   3.90242685
_cell_length_c   5.47588572
_cell_angle_alpha   110.87487428
_cell_angle_beta   110.87488247
_cell_angle_gamma   90.00000015
_symmetry_Int_Tables_number   1
_chemical_formula_structural   Tm(SiNi)2
_chemical_formula_sum   'Tm1 Si2 Ni2'
_cell_volume   72.02956718
_cell_formula_units_Z   1
loop_
 _symmetry_equiv_pos_site_id
 _symmetry_equiv_pos_as_xyz
  1  'x, y, z'
loop_
 _atom_site_type_symbol
 _atom_site_label
 _atom_site_symmetry_multiplicity
 _atom_site_fract_x
 _atom_site_fract_y
 _atom_site_fract_z
 _atom_site_occupancy
  Tm  Tm0  1  0.00000000  0.00000000  0.00000000  1
  Si  Si1  1  0.62580298  0.62580298  0.25160595  1
  Si  Si2  1  0.37419702  0.37419702  0.74839405  1
  Ni  Ni3  1  0.25000000  0.75000000  0.50000000  1
  Ni  Ni4  1  0.75000000  0.25000000  0.50000000  1
