# generated using pymatgen
data_Ba(CuSe)2
_symmetry_space_group_name_H-M   'P 1'
_cell_length_a   4.20938168
_cell_length_b   9.57861590
_cell_length_c   10.82417378
_cell_angle_alpha   90.00000000
_cell_angle_beta   90.00000000
_cell_angle_gamma   90.00000000
_symmetry_Int_Tables_number   1
_chemical_formula_structural   Ba(CuSe)2
_chemical_formula_sum   'Ba4 Cu8 Se8'
_cell_volume   436.43123115
_cell_formula_units_Z   4
loop_
 _symmetry_equiv_pos_site_id
 _symmetry_equiv_pos_as_xyz
  1  'x, y, z'
loop_
 _atom_site_type_symbol
 _atom_site_label
 _atom_site_symmetry_multiplicity
 _atom_site_fract_x
 _atom_site_fract_y
 _atom_site_fract_z
 _atom_site_occupancy
  Ba  Ba0  1  0.75000000  0.25888676  0.67639784  1
  Ba  Ba1  1  0.25000000  0.74111324  0.32360216  1
  Ba  Ba2  1  0.75000000  0.75888676  0.82360216  1
  Ba  Ba3  1  0.25000000  0.24111324  0.17639784  1
  Cu  Cu4  1  0.25000000  0.58062948  0.04174975  1
  Cu  Cu5  1  0.75000000  0.41937052  0.95825025  1
  Cu  Cu6  1  0.75000000  0.91937052  0.54174975  1
  Cu  Cu7  1  0.25000000  0.08062948  0.45825025  1
  Cu  Cu8  1  0.75000000  0.44551451  0.38681871  1
  Cu  Cu9  1  0.25000000  0.55448549  0.61318129  1
  Cu  Cu10  1  0.75000000  0.94551451  0.11318129  1
  Cu  Cu11  1  0.25000000  0.05448549  0.88681871  1
  Se  Se12  1  0.25000000  0.34234218  0.45982976  1
  Se  Se13  1  0.75000000  0.65765782  0.54017024  1
  Se  Se14  1  0.75000000  0.15765782  0.95982976  1
  Se  Se15  1  0.25000000  0.84234218  0.04017024  1
  Se  Se16  1  0.75000000  0.02103049  0.33194324  1
  Se  Se17  1  0.25000000  0.97896951  0.66805676  1
  Se  Se18  1  0.75000000  0.52103049  0.16805676  1
  Se  Se19  1  0.25000000  0.47896951  0.83194324  1
