# generated using pymatgen
data_Nd(AgGe)2
_symmetry_space_group_name_H-M   'P 1'
_cell_length_a   4.28129339
_cell_length_b   4.28129325
_cell_length_c   6.30993148
_cell_angle_alpha   109.84265110
_cell_angle_beta   109.84265239
_cell_angle_gamma   89.97605394
_symmetry_Int_Tables_number   1
_chemical_formula_structural   Nd(AgGe)2
_chemical_formula_sum   'Nd1 Ag2 Ge2'
_cell_volume   101.46679181
_cell_formula_units_Z   1
loop_
 _symmetry_equiv_pos_site_id
 _symmetry_equiv_pos_as_xyz
  1  'x, y, z'
loop_
 _atom_site_type_symbol
 _atom_site_label
 _atom_site_symmetry_multiplicity
 _atom_site_fract_x
 _atom_site_fract_y
 _atom_site_fract_z
 _atom_site_occupancy
  Nd  Nd0  1  0.00000000  0.00000001  -0.00000001  1
  Ag  Ag1  1  0.25006005  0.74993995  0.50000001  1
  Ag  Ag2  1  0.74993996  0.25006006  0.50000001  1
  Ge  Ge3  1  0.60939590  0.60939591  0.21915667  1
  Ge  Ge4  1  0.39060409  0.39060408  0.78084333  1
