# generated using pymatgen
data_CaSnF6
_symmetry_space_group_name_H-M   'P 1'
_cell_length_a   5.92037582
_cell_length_b   5.92037516
_cell_length_c   5.92037540
_cell_angle_alpha   58.63960457
_cell_angle_beta   58.63960884
_cell_angle_gamma   58.63960850
_symmetry_Int_Tables_number   1
_chemical_formula_structural   CaSnF6
_chemical_formula_sum   'Ca1 Sn1 F6'
_cell_volume   142.17186526
_cell_formula_units_Z   1
loop_
 _symmetry_equiv_pos_site_id
 _symmetry_equiv_pos_as_xyz
  1  'x, y, z'
loop_
 _atom_site_type_symbol
 _atom_site_label
 _atom_site_symmetry_multiplicity
 _atom_site_fract_x
 _atom_site_fract_y
 _atom_site_fract_z
 _atom_site_occupancy
  Ca  Ca0  1  0.00000000  0.00000000  -0.00000000  1
  Sn  Sn1  1  0.50000000  0.50000000  0.50000000  1
  F  F2  1  0.19537122  0.73233042  0.33869185  1
  F  F3  1  0.73233042  0.33869185  0.19537122  1
  F  F4  1  0.66130815  0.80462878  0.26766958  1
  F  F5  1  0.26766958  0.66130815  0.80462878  1
  F  F6  1  0.80462878  0.26766958  0.66130815  1
  F  F7  1  0.33869185  0.19537122  0.73233042  1
