# generated using pymatgen
data_Dy(SiIr)2
_symmetry_space_group_name_H-M   'P 1'
_cell_length_a   4.06461818
_cell_length_b   4.06461893
_cell_length_c   5.72746433
_cell_angle_alpha   110.78339216
_cell_angle_beta   110.78339135
_cell_angle_gamma   89.99998037
_symmetry_Int_Tables_number   1
_chemical_formula_structural   Dy(SiIr)2
_chemical_formula_sum   'Dy1 Si2 Ir2'
_cell_volume   81.84758861
_cell_formula_units_Z   1
loop_
 _symmetry_equiv_pos_site_id
 _symmetry_equiv_pos_as_xyz
  1  'x, y, z'
loop_
 _atom_site_type_symbol
 _atom_site_label
 _atom_site_symmetry_multiplicity
 _atom_site_fract_x
 _atom_site_fract_y
 _atom_site_fract_z
 _atom_site_occupancy
  Dy  Dy0  1  0.00000000  0.00000000  0.00000000  1
  Si  Si1  1  0.62165048  0.62165048  0.24330295  1
  Si  Si2  1  0.37834952  0.37834952  0.75669705  1
  Ir  Ir3  1  0.25000000  0.75000000  0.50000000  1
  Ir  Ir4  1  0.75000000  0.25000000  0.50000000  1
