# generated using pymatgen
data_Er(MnGe)2
_symmetry_space_group_name_H-M   'P 1'
_cell_length_a   4.04779486
_cell_length_b   4.04779355
_cell_length_c   6.16888389
_cell_angle_alpha   109.15238468
_cell_angle_beta   109.15237546
_cell_angle_gamma   90.00000145
_symmetry_Int_Tables_number   1
_chemical_formula_structural   Er(MnGe)2
_chemical_formula_sum   'Er1 Mn2 Ge2'
_cell_volume   89.53692048
_cell_formula_units_Z   1
loop_
 _symmetry_equiv_pos_site_id
 _symmetry_equiv_pos_as_xyz
  1  'x, y, z'
loop_
 _atom_site_type_symbol
 _atom_site_label
 _atom_site_symmetry_multiplicity
 _atom_site_fract_x
 _atom_site_fract_y
 _atom_site_fract_z
 _atom_site_occupancy
  Er  Er0  1  0.00000000  -0.00000000  0.00000000  1
  Mn  Mn1  1  0.25000000  0.75000000  0.50000000  1
  Mn  Mn2  1  0.75000000  0.25000000  0.50000000  1
  Ge  Ge3  1  0.61261705  0.61261705  0.22523410  1
  Ge  Ge4  1  0.38738295  0.38738295  0.77476590  1
