# generated using pymatgen
data_La2MgNi2
_symmetry_space_group_name_H-M   'P 1'
_cell_length_a   3.90525792
_cell_length_b   7.60167783
_cell_length_c   7.60167783
_cell_angle_alpha   90.00000000
_cell_angle_beta   90.00000000
_cell_angle_gamma   90.00000000
_symmetry_Int_Tables_number   1
_chemical_formula_structural   La2MgNi2
_chemical_formula_sum   'La4 Mg2 Ni4'
_cell_volume   225.66730431
_cell_formula_units_Z   2
loop_
 _symmetry_equiv_pos_site_id
 _symmetry_equiv_pos_as_xyz
  1  'x, y, z'
loop_
 _atom_site_type_symbol
 _atom_site_label
 _atom_site_symmetry_multiplicity
 _atom_site_fract_x
 _atom_site_fract_y
 _atom_site_fract_z
 _atom_site_occupancy
  La  La0  1  0.50000000  0.82805570  0.32805570  1
  La  La1  1  0.50000000  0.67194430  0.82805570  1
  La  La2  1  0.50000000  0.32805570  0.17194430  1
  La  La3  1  0.50000000  0.17194430  0.67194430  1
  Mg  Mg4  1  -0.00000000  0.50000000  0.50000000  1
  Mg  Mg5  1  -0.00000000  0.00000000  0.00000000  1
  Ni  Ni6  1  -0.00000000  0.62008575  0.12008575  1
  Ni  Ni7  1  0.00000000  0.87991425  0.62008575  1
  Ni  Ni8  1  0.00000000  0.37991425  0.87991425  1
  Ni  Ni9  1  -0.00000000  0.12008575  0.37991425  1
