# generated using pymatgen
data_AlPO4
_symmetry_space_group_name_H-M   'P 1'
_cell_length_a   4.99704215
_cell_length_b   4.99704153
_cell_length_c   6.94665346
_cell_angle_alpha   90.00000000
_cell_angle_beta   90.00000000
_cell_angle_gamma   90.20042164
_symmetry_Int_Tables_number   1
_chemical_formula_structural   AlPO4
_chemical_formula_sum   'Al2 P2 O8'
_cell_volume   173.45984300
_cell_formula_units_Z   2
loop_
 _symmetry_equiv_pos_site_id
 _symmetry_equiv_pos_as_xyz
  1  'x, y, z'
loop_
 _atom_site_type_symbol
 _atom_site_label
 _atom_site_symmetry_multiplicity
 _atom_site_fract_x
 _atom_site_fract_y
 _atom_site_fract_z
 _atom_site_occupancy
  Al  Al0  1  0.19448302  0.19448302  0.25000000  1
  Al  Al1  1  0.80551698  0.80551698  0.75000000  1
  P  P2  1  0.30717876  0.69282124  0.00000000  1
  P  P3  1  0.69282124  0.30717876  0.50000000  1
  O  O4  1  0.26409037  0.40086657  0.05486973  1
  O  O5  1  0.73590963  0.59913343  0.55486973  1
  O  O6  1  0.40086657  0.26409037  0.44513027  1
  O  O7  1  0.59913343  0.73590963  0.94513027  1
  O  O8  1  0.23676780  0.86682708  0.17290648  1
  O  O9  1  0.76323220  0.13317292  0.67290648  1
  O  O10  1  0.86682708  0.23676780  0.32709352  1
  O  O11  1  0.13317292  0.76323220  0.82709352  1
