# generated using pymatgen
data_Er(SiNi)2
_symmetry_space_group_name_H-M   'P 1'
_cell_length_a   3.91346008
_cell_length_b   3.91345982
_cell_length_c   5.48091393
_cell_angle_alpha   110.91652866
_cell_angle_beta   110.91654106
_cell_angle_gamma   90.00001816
_symmetry_Int_Tables_number   1
_chemical_formula_structural   Er(SiNi)2
_chemical_formula_sum   'Er1 Si2 Ni2'
_cell_volume   72.45685069
_cell_formula_units_Z   1
loop_
 _symmetry_equiv_pos_site_id
 _symmetry_equiv_pos_as_xyz
  1  'x, y, z'
loop_
 _atom_site_type_symbol
 _atom_site_label
 _atom_site_symmetry_multiplicity
 _atom_site_fract_x
 _atom_site_fract_y
 _atom_site_fract_z
 _atom_site_occupancy
  Er  Er0  1  -0.00000000  0.00000000  -0.00000000  1
  Si  Si1  1  0.62628622  0.62628622  0.25257345  1
  Si  Si2  1  0.37371378  0.37371378  0.74742655  1
  Ni  Ni3  1  0.75000000  0.25000000  0.50000000  1
  Ni  Ni4  1  0.25000000  0.75000000  0.50000000  1
