# generated using pymatgen
data_Tm(MnSn)6
_symmetry_space_group_name_H-M   'P 1'
_cell_length_a   5.67040500
_cell_length_b   5.67040091
_cell_length_c   9.14390902
_cell_angle_alpha   90.00000000
_cell_angle_beta   90.00000000
_cell_angle_gamma   119.99880729
_symmetry_Int_Tables_number   1
_chemical_formula_structural   Tm(MnSn)6
_chemical_formula_sum   'Tm1 Mn6 Sn6'
_cell_volume   254.62180476
_cell_formula_units_Z   1
loop_
 _symmetry_equiv_pos_site_id
 _symmetry_equiv_pos_as_xyz
  1  'x, y, z'
loop_
 _atom_site_type_symbol
 _atom_site_label
 _atom_site_symmetry_multiplicity
 _atom_site_fract_x
 _atom_site_fract_y
 _atom_site_fract_z
 _atom_site_occupancy
  Tm  Tm0  1  -0.00000000  -0.00000000  -0.00000000  1
  Mn  Mn1  1  -0.00000000  0.50000000  0.75324461  1
  Mn  Mn2  1  0.50000000  -0.00000000  0.24675539  1
  Mn  Mn3  1  0.50000000  0.50000000  0.24675781  1
  Mn  Mn4  1  -0.00000000  0.50000000  0.24675539  1
  Mn  Mn5  1  0.50000000  -0.00000000  0.75324461  1
  Mn  Mn6  1  0.50000000  0.50000000  0.75324219  1
  Sn  Sn7  1  0.66663519  0.33336581  0.50000000  1
  Sn  Sn8  1  -0.00000000  -0.00000000  0.33352527  1
  Sn  Sn9  1  -0.00000000  -0.00000000  0.66647473  1
  Sn  Sn10  1  0.33336436  0.66663464  -0.00000000  1
  Sn  Sn11  1  0.66663564  0.33336536  -0.00000000  1
  Sn  Sn12  1  0.33336481  0.66663419  0.50000000  1
