# generated using pymatgen
data_Y4Al23Ni6
_symmetry_space_group_name_H-M   'P 1'
_cell_length_a   8.14391421
_cell_length_b   8.14391421
_cell_length_c   18.16161579
_cell_angle_alpha   67.88413228
_cell_angle_beta   67.88413228
_cell_angle_gamma   28.75697569
_symmetry_Int_Tables_number   1
_chemical_formula_structural   Y4Al23Ni6
_chemical_formula_sum   'Y4 Al23 Ni6'
_cell_volume   533.94011346
_cell_formula_units_Z   1
loop_
 _symmetry_equiv_pos_site_id
 _symmetry_equiv_pos_as_xyz
  1  'x, y, z'
loop_
 _atom_site_type_symbol
 _atom_site_label
 _atom_site_symmetry_multiplicity
 _atom_site_fract_x
 _atom_site_fract_y
 _atom_site_fract_z
 _atom_site_occupancy
  Y  Y0  1  0.73492008  0.73492008  0.21823335  1
  Y  Y1  1  0.57253531  0.57253531  0.59346122  1
  Y  Y2  1  0.42746469  0.42746469  0.40653878  1
  Y  Y3  1  0.26507992  0.26507992  0.78176665  1
  Al  Al4  1  -0.00000000  -0.00000000  0.50000000  1
  Al  Al5  1  0.85522431  0.85522431  0.85807083  1
  Al  Al6  1  0.91954968  0.91954968  0.68703842  1
  Al  Al7  1  0.08045032  0.08045032  0.31296158  1
  Al  Al8  1  0.91016784  0.91016784  0.05109287  1
  Al  Al9  1  0.08983216  0.08983216  0.94890713  1
  Al  Al10  1  0.90873726  0.90873726  0.28016824  1
  Al  Al11  1  0.09126274  0.09126274  0.71983176  1
  Al  Al12  1  0.79854549  0.79854549  0.52071577  1
  Al  Al13  1  0.20145451  0.20145451  0.47928423  1
  Al  Al14  1  0.14477569  0.14477569  0.14192917  1
  Al  Al15  1  0.60917476  0.60917476  0.83729110  1
  Al  Al16  1  0.74537012  0.74537012  0.04590872  1
  Al  Al17  1  0.25462988  0.25462988  0.95409128  1
  Al  Al18  1  0.39082524  0.39082524  0.16270890  1
  Al  Al19  1  0.46789881  0.46789881  0.78175360  1
  Al  Al20  1  0.72498089  0.72498089  0.67555801  1
  Al  Al21  1  0.27501911  0.27501911  0.32444199  1
  Al  Al22  1  0.62300432  0.62300432  0.40463589  1
  Al  Al23  1  0.37699568  0.37699568  0.59536411  1
  Al  Al24  1  0.56814349  0.56814349  0.06019060  1
  Al  Al25  1  0.43185651  0.43185651  0.93980940  1
  Al  Al26  1  0.53210119  0.53210119  0.21824640  1
  Ni  Ni27  1  0.99265449  0.99265449  0.13675382  1
  Ni  Ni28  1  0.00734551  0.00734551  0.86324618  1
  Ni  Ni29  1  0.77291351  0.77291351  0.39878084  1
  Ni  Ni30  1  0.68879894  0.68879894  0.93223938  1
  Ni  Ni31  1  0.22708649  0.22708649  0.60121916  1
  Ni  Ni32  1  0.31120106  0.31120106  0.06776062  1
