# generated using pymatgen
data_SrTl2O4
_symmetry_space_group_name_H-M   'P 1'
_cell_length_a   3.43100564
_cell_length_b   10.09167684
_cell_length_c   11.78800158
_cell_angle_alpha   90.00000000
_cell_angle_beta   90.00000000
_cell_angle_gamma   90.00000000
_symmetry_Int_Tables_number   1
_chemical_formula_structural   SrTl2O4
_chemical_formula_sum   'Sr4 Tl8 O16'
_cell_volume   408.15484134
_cell_formula_units_Z   4
loop_
 _symmetry_equiv_pos_site_id
 _symmetry_equiv_pos_as_xyz
  1  'x, y, z'
loop_
 _atom_site_type_symbol
 _atom_site_label
 _atom_site_symmetry_multiplicity
 _atom_site_fract_x
 _atom_site_fract_y
 _atom_site_fract_z
 _atom_site_occupancy
  Sr  Sr0  1  0.25000000  0.24544989  0.34804742  1
  Sr  Sr1  1  0.75000000  0.75455011  0.65195258  1
  Sr  Sr2  1  0.25000000  0.74544989  0.15195258  1
  Sr  Sr3  1  0.75000000  0.25455011  0.84804742  1
  Tl  Tl4  1  0.25000000  0.58004283  0.89220508  1
  Tl  Tl5  1  0.75000000  0.41995717  0.10779492  1
  Tl  Tl6  1  0.25000000  0.08004283  0.60779492  1
  Tl  Tl7  1  0.75000000  0.91995717  0.39220508  1
  Tl  Tl8  1  0.25000000  0.57561117  0.39040944  1
  Tl  Tl9  1  0.75000000  0.42438883  0.60959056  1
  Tl  Tl10  1  0.25000000  0.07561117  0.10959056  1
  Tl  Tl11  1  0.75000000  0.92438883  0.89040944  1
  O  O12  1  0.25000000  0.58685918  0.57420161  1
  O  O13  1  0.75000000  0.41314082  0.42579839  1
  O  O14  1  0.25000000  0.08685918  0.92579839  1
  O  O15  1  0.75000000  0.91314082  0.07420161  1
  O  O16  1  0.25000000  0.47918666  0.22056758  1
  O  O17  1  0.75000000  0.52081334  0.77943242  1
  O  O18  1  0.25000000  0.97918666  0.27943242  1
  O  O19  1  0.75000000  0.02081334  0.72056758  1
  O  O20  1  0.25000000  0.87510556  0.52395404  1
  O  O21  1  0.75000000  0.12489444  0.47604596  1
  O  O22  1  0.25000000  0.37510556  0.97604596  1
  O  O23  1  0.75000000  0.62489444  0.02395404  1
  O  O24  1  0.75000000  0.71031005  0.32103730  1
  O  O25  1  0.25000000  0.28968995  0.67896270  1
  O  O26  1  0.75000000  0.21031005  0.17896270  1
  O  O27  1  0.25000000  0.78968995  0.82103730  1
