# generated using pymatgen
data_RbPO3
_symmetry_space_group_name_H-M   'P 1'
_cell_length_a   4.23479786
_cell_length_b   6.48179428
_cell_length_c   13.12275816
_cell_angle_alpha   66.49759589
_cell_angle_beta   90.00000000
_cell_angle_gamma   90.00000000
_symmetry_Int_Tables_number   1
_chemical_formula_structural   RbPO3
_chemical_formula_sum   'Rb4 P4 O12'
_cell_volume   330.32611955
_cell_formula_units_Z   4
loop_
 _symmetry_equiv_pos_site_id
 _symmetry_equiv_pos_as_xyz
  1  'x, y, z'
loop_
 _atom_site_type_symbol
 _atom_site_label
 _atom_site_symmetry_multiplicity
 _atom_site_fract_x
 _atom_site_fract_y
 _atom_site_fract_z
 _atom_site_occupancy
  Rb  Rb0  1  0.13506406  0.68648034  0.09184856  1
  Rb  Rb1  1  0.63506406  0.31351966  0.40815144  1
  Rb  Rb2  1  0.86493594  0.31351966  0.90815144  1
  Rb  Rb3  1  0.36493594  0.68648034  0.59184856  1
  P  P4  1  0.49026232  0.13956369  0.17876597  1
  P  P5  1  0.99026232  0.86043631  0.32123403  1
  P  P6  1  0.50973768  0.86043631  0.82123403  1
  P  P7  1  0.00973768  0.13956369  0.67876597  1
  O  O8  1  0.63855288  0.34907853  0.17625318  1
  O  O9  1  0.13855288  0.65092147  0.32374682  1
  O  O10  1  0.36144712  0.65092147  0.82374682  1
  O  O11  1  0.86144712  0.34907853  0.67625318  1
  O  O12  1  0.33918031  0.13544968  0.07769042  1
  O  O13  1  0.83918031  0.86455032  0.42230958  1
  O  O14  1  0.66081969  0.86455032  0.92230958  1
  O  O15  1  0.16081969  0.13544968  0.57769042  1
  O  O16  1  0.75773263  0.93592083  0.71928215  1
  O  O17  1  0.25773263  0.06407917  0.78071785  1
  O  O18  1  0.24226737  0.06407917  0.28071785  1
  O  O19  1  0.74226737  0.93592083  0.21928215  1
