# generated using pymatgen
data_Na3ScF6
_symmetry_space_group_name_H-M   'P 1'
_cell_length_a   5.51805840
_cell_length_b   5.78124833
_cell_length_c   8.01581861
_cell_angle_alpha   90.00000000
_cell_angle_beta   91.15505789
_cell_angle_gamma   90.00000000
_symmetry_Int_Tables_number   1
_chemical_formula_structural   Na3ScF6
_chemical_formula_sum   'Na6 Sc2 F12'
_cell_volume   255.66280045
_cell_formula_units_Z   2
loop_
 _symmetry_equiv_pos_site_id
 _symmetry_equiv_pos_as_xyz
  1  'x, y, z'
loop_
 _atom_site_type_symbol
 _atom_site_label
 _atom_site_symmetry_multiplicity
 _atom_site_fract_x
 _atom_site_fract_y
 _atom_site_fract_z
 _atom_site_occupancy
  Na  Na0  1  0.01948896  0.56032724  0.74090183  1
  Na  Na1  1  0.48051104  0.06032724  0.75909817  1
  Na  Na2  1  0.98051104  0.43967276  0.25909817  1
  Na  Na3  1  0.51948896  0.93967276  0.24090183  1
  Na  Na4  1  0.50000000  0.50000000  -0.00000000  1
  Na  Na5  1  -0.00000000  0.00000000  0.50000000  1
  Sc  Sc6  1  0.50000000  0.50000000  0.50000000  1
  Sc  Sc7  1  -0.00000000  0.00000000  -0.00000000  1
  F  F8  1  0.67199756  0.21189080  0.41977927  1
  F  F9  1  0.82800244  0.71189080  0.08022073  1
  F  F10  1  0.32800244  0.78810920  0.58022073  1
  F  F11  1  0.17199756  0.28810920  0.91977927  1
  F  F12  1  0.19988945  0.32054727  0.55550330  1
  F  F13  1  0.30011055  0.82054727  0.94449670  1
  F  F14  1  0.80011055  0.67945273  0.44449670  1
  F  F15  1  0.69988945  0.17945273  0.05550330  1
  F  F16  1  0.12938725  0.06896193  0.23337320  1
  F  F17  1  0.37061275  0.56896193  0.26662680  1
  F  F18  1  0.87061275  0.93103807  0.76662680  1
  F  F19  1  0.62938725  0.43103807  0.73337320  1
