# generated using pymatgen
data_K2SO4
_symmetry_space_group_name_H-M   'P 1'
_cell_length_a   5.73672509
_cell_length_b   7.42958663
_cell_length_c   10.01581510
_cell_angle_alpha   90.00000000
_cell_angle_beta   90.00000000
_cell_angle_gamma   90.00000000
_symmetry_Int_Tables_number   1
_chemical_formula_structural   K2SO4
_chemical_formula_sum   'K8 S4 O16'
_cell_volume   426.88902351
_cell_formula_units_Z   4
loop_
 _symmetry_equiv_pos_site_id
 _symmetry_equiv_pos_as_xyz
  1  'x, y, z'
loop_
 _atom_site_type_symbol
 _atom_site_label
 _atom_site_symmetry_multiplicity
 _atom_site_fract_x
 _atom_site_fract_y
 _atom_site_fract_z
 _atom_site_occupancy
  K  K0  1  0.75000000  0.00867307  0.70286422  1
  K  K1  1  0.25000000  0.99132693  0.29713578  1
  K  K2  1  0.75000000  0.50867307  0.79713578  1
  K  K3  1  0.25000000  0.49132693  0.20286422  1
  K  K4  1  0.25000000  0.67020316  0.58769921  1
  K  K5  1  0.75000000  0.32979684  0.41230079  1
  K  K6  1  0.25000000  0.17020316  0.91230079  1
  K  K7  1  0.75000000  0.82979684  0.08769921  1
  S  S8  1  0.25000000  0.23164415  0.58080124  1
  S  S9  1  0.75000000  0.76835585  0.41919876  1
  S  S10  1  0.25000000  0.73164415  0.91919876  1
  S  S11  1  0.75000000  0.26835585  0.08080124  1
  O  O12  1  0.53946990  0.70054276  0.34989735  1
  O  O13  1  0.03946990  0.29945724  0.65010265  1
  O  O14  1  0.96053010  0.20054276  0.15010265  1
  O  O15  1  0.46053010  0.79945724  0.84989735  1
  O  O16  1  0.46053010  0.29945724  0.65010265  1
  O  O17  1  0.96053010  0.70054276  0.34989735  1
  O  O18  1  0.03946990  0.79945724  0.84989735  1
  O  O19  1  0.53946990  0.20054276  0.15010265  1
  O  O20  1  0.25000000  0.30168668  0.44191320  1
  O  O21  1  0.75000000  0.69831332  0.55808680  1
  O  O22  1  0.25000000  0.80168668  0.05808680  1
  O  O23  1  0.75000000  0.19831332  0.94191320  1
  O  O24  1  0.75000000  0.46651090  0.08108044  1
  O  O25  1  0.25000000  0.53348910  0.91891956  1
  O  O26  1  0.75000000  0.96651090  0.41891956  1
  O  O27  1  0.25000000  0.03348910  0.58108044  1
