# generated using pymatgen
data_KBF4
_symmetry_space_group_name_H-M   'P 1'
_cell_length_a   5.36240350
_cell_length_b   6.94101924
_cell_length_c   8.53374770
_cell_angle_alpha   90.00000000
_cell_angle_beta   90.00000000
_cell_angle_gamma   90.00000000
_symmetry_Int_Tables_number   1
_chemical_formula_structural   KBF4
_chemical_formula_sum   'K4 B4 F16'
_cell_volume   317.63074768
_cell_formula_units_Z   4
loop_
 _symmetry_equiv_pos_site_id
 _symmetry_equiv_pos_as_xyz
  1  'x, y, z'
loop_
 _atom_site_type_symbol
 _atom_site_label
 _atom_site_symmetry_multiplicity
 _atom_site_fract_x
 _atom_site_fract_y
 _atom_site_fract_z
 _atom_site_occupancy
  K  K0  1  0.25000000  0.34126373  0.68305112  1
  K  K1  1  0.75000000  0.65873627  0.31694888  1
  K  K2  1  0.75000000  0.84126373  0.81694888  1
  K  K3  1  0.25000000  0.15873627  0.18305112  1
  B  B4  1  0.25000000  0.68911901  0.06370424  1
  B  B5  1  0.25000000  0.81088099  0.56370424  1
  B  B6  1  0.75000000  0.18911901  0.43629576  1
  B  B7  1  0.75000000  0.31088099  0.93629576  1
  F  F8  1  0.53628511  0.30713359  0.42197365  1
  F  F9  1  0.96371489  0.19286641  0.92197365  1
  F  F10  1  0.46371489  0.80713359  0.07802635  1
  F  F11  1  0.03628511  0.69286641  0.57802635  1
  F  F12  1  0.25000000  0.60011590  0.91671279  1
  F  F13  1  0.75000000  0.39988410  0.08328721  1
  F  F14  1  0.75000000  0.10011590  0.58328721  1
  F  F15  1  0.25000000  0.89988410  0.41671279  1
  F  F16  1  0.25000000  0.55225556  0.18469547  1
  F  F17  1  0.75000000  0.44774444  0.81530453  1
  F  F18  1  0.75000000  0.05225556  0.31530453  1
  F  F19  1  0.25000000  0.94774444  0.68469547  1
  F  F20  1  0.03628511  0.80713359  0.07802635  1
  F  F21  1  0.53628511  0.19286641  0.92197365  1
  F  F22  1  0.96371489  0.30713359  0.42197365  1
  F  F23  1  0.46371489  0.69286641  0.57802635  1
