# generated using pymatgen
data_MgSO4
_symmetry_space_group_name_H-M   'P 1'
_cell_length_a   4.74587934
_cell_length_b   6.63883985
_cell_length_c   8.59634162
_cell_angle_alpha   90.00000000
_cell_angle_beta   90.00000000
_cell_angle_gamma   90.00000000
_symmetry_Int_Tables_number   1
_chemical_formula_structural   MgSO4
_chemical_formula_sum   'Mg4 S4 O16'
_cell_volume   270.84607775
_cell_formula_units_Z   4
loop_
 _symmetry_equiv_pos_site_id
 _symmetry_equiv_pos_as_xyz
  1  'x, y, z'
loop_
 _atom_site_type_symbol
 _atom_site_label
 _atom_site_symmetry_multiplicity
 _atom_site_fract_x
 _atom_site_fract_y
 _atom_site_fract_z
 _atom_site_occupancy
  Mg  Mg0  1  0.00000000  0.00000000  0.00000000  1
  Mg  Mg1  1  0.50000000  0.00000000  0.50000000  1
  Mg  Mg2  1  0.00000000  0.50000000  0.00000000  1
  Mg  Mg3  1  0.50000000  0.50000000  0.50000000  1
  S  S4  1  0.97598255  0.75000000  0.32112269  1
  S  S5  1  0.47598255  0.25000000  0.17887731  1
  S  S6  1  0.02401745  0.25000000  0.67887731  1
  S  S7  1  0.52401745  0.75000000  0.82112269  1
  O  O8  1  0.22777318  0.75000000  0.87581625  1
  O  O9  1  0.72777318  0.25000000  0.62418375  1
  O  O10  1  0.77222682  0.25000000  0.12418375  1
  O  O11  1  0.27222682  0.75000000  0.37581625  1
  O  O12  1  0.53794270  0.75000000  0.64738576  1
  O  O13  1  0.03794270  0.25000000  0.85261424  1
  O  O14  1  0.46205730  0.25000000  0.35261424  1
  O  O15  1  0.96205730  0.75000000  0.14738576  1
  O  O16  1  0.83664857  0.93246519  0.37476188  1
  O  O17  1  0.33664857  0.06753481  0.12523812  1
  O  O18  1  0.16335143  0.43246519  0.62523812  1
  O  O19  1  0.66335143  0.56753481  0.87476188  1
  O  O20  1  0.16335143  0.06753481  0.62523812  1
  O  O21  1  0.66335143  0.93246519  0.87476188  1
  O  O22  1  0.83664857  0.56753481  0.37476188  1
  O  O23  1  0.33664857  0.43246519  0.12523812  1
