# generated using pymatgen
data_U2P2O9
_symmetry_space_group_name_H-M   'P 1'
_cell_length_a   5.73490574
_cell_length_b   5.73490574
_cell_length_c   12.72554422
_cell_angle_alpha   90.00000000
_cell_angle_beta   90.00000000
_cell_angle_gamma   103.73813999
_symmetry_Int_Tables_number   1
_chemical_formula_structural   U2P2O9
_chemical_formula_sum   'U4 P4 O18'
_cell_volume   406.55856935
_cell_formula_units_Z   2
loop_
 _symmetry_equiv_pos_site_id
 _symmetry_equiv_pos_as_xyz
  1  'x, y, z'
loop_
 _atom_site_type_symbol
 _atom_site_label
 _atom_site_symmetry_multiplicity
 _atom_site_fract_x
 _atom_site_fract_y
 _atom_site_fract_z
 _atom_site_occupancy
  U  U0  1  0.20853893  0.79146107  0.43032113  1
  U  U1  1  0.29146107  0.70853893  0.93032113  1
  U  U2  1  0.79146107  0.20853893  0.56967887  1
  U  U3  1  0.70853893  0.29146107  0.06967887  1
  P  P4  1  0.10927388  0.89072612  0.14321764  1
  P  P5  1  0.39072612  0.60927388  0.64321764  1
  P  P6  1  0.89072612  0.10927388  0.85678236  1
  P  P7  1  0.60927388  0.39072612  0.35678236  1
  O  O8  1  0.94233578  0.05766422  0.12304923  1
  O  O9  1  0.55766422  0.44233578  0.62304923  1
  O  O10  1  0.05766422  0.94233578  0.87695077  1
  O  O11  1  0.44233578  0.55766422  0.37695077  1
  O  O12  1  0.50000000  0.50000000  -0.00000000  1
  O  O13  1  0.00000000  -0.00000000  0.50000000  1
  O  O14  1  0.63958836  0.36041164  0.24039022  1
  O  O15  1  0.86041164  0.13958836  0.74039022  1
  O  O16  1  0.85256765  0.48625647  0.41362051  1
  O  O17  1  0.64743235  0.01374353  0.91362051  1
  O  O18  1  0.48625647  0.85256765  0.58637949  1
  O  O19  1  0.01374353  0.64743235  0.08637949  1
  O  O20  1  0.14743235  0.51374353  0.58637949  1
  O  O21  1  0.35256765  0.98625647  0.08637949  1
  O  O22  1  0.51374353  0.14743235  0.41362051  1
  O  O23  1  0.98625647  0.35256765  0.91362051  1
  O  O24  1  0.13958836  0.86041164  0.25960978  1
  O  O25  1  0.36041164  0.63958836  0.75960978  1
