# generated using pymatgen
data_TbPO4
_symmetry_space_group_name_H-M   'P 1'
_cell_length_a   5.74327170
_cell_length_b   5.74327246
_cell_length_c   5.74327176
_cell_angle_alpha   106.07000087
_cell_angle_beta   106.06999337
_cell_angle_gamma   116.51146292
_symmetry_Int_Tables_number   1
_chemical_formula_structural   TbPO4
_chemical_formula_sum   'Tb2 P2 O8'
_cell_volume   144.16232459
_cell_formula_units_Z   2
loop_
 _symmetry_equiv_pos_site_id
 _symmetry_equiv_pos_as_xyz
  1  'x, y, z'
loop_
 _atom_site_type_symbol
 _atom_site_label
 _atom_site_symmetry_multiplicity
 _atom_site_fract_x
 _atom_site_fract_y
 _atom_site_fract_z
 _atom_site_occupancy
  Tb  Tb0  1  0.12500000  0.87500000  0.25000000  1
  Tb  Tb1  1  0.87500000  0.12500000  0.75000000  1
  P  P2  1  0.37500000  0.62500000  0.75000000  1
  P  P3  1  0.62500000  0.37500000  0.25000000  1
  O  O4  1  0.78328710  0.35890748  0.07562038  1
  O  O5  1  0.70766471  0.78328710  0.92437962  1
  O  O6  1  0.35890748  0.78328710  0.57562038  1
  O  O7  1  0.78328710  0.70766471  0.42437962  1
  O  O8  1  0.29233529  0.21671390  0.07562038  1
  O  O9  1  0.21671390  0.64109252  0.92437962  1
  O  O10  1  0.21671390  0.29233529  0.57562038  1
  O  O11  1  0.64109252  0.21671390  0.42437962  1
