# generated using pymatgen
data_KTeF5
_symmetry_space_group_name_H-M   'P 1'
_cell_length_a   4.63947877
_cell_length_b   9.10032908
_cell_length_c   11.28542960
_cell_angle_alpha   90.00000000
_cell_angle_beta   90.00000000
_cell_angle_gamma   90.00000000
_symmetry_Int_Tables_number   1
_chemical_formula_structural   KTeF5
_chemical_formula_sum   'K4 Te4 F20'
_cell_volume   476.47968060
_cell_formula_units_Z   4
loop_
 _symmetry_equiv_pos_site_id
 _symmetry_equiv_pos_as_xyz
  1  'x, y, z'
loop_
 _atom_site_type_symbol
 _atom_site_label
 _atom_site_symmetry_multiplicity
 _atom_site_fract_x
 _atom_site_fract_y
 _atom_site_fract_z
 _atom_site_occupancy
  K  K0  1  0.48872999  0.25000000  -0.00000000  1
  K  K1  1  0.51127001  0.75000000  0.50000000  1
  K  K2  1  0.51127001  0.75000000  -0.00000000  1
  K  K3  1  0.48872999  0.25000000  0.50000000  1
  Te  Te4  1  0.11769564  0.05965827  0.25000000  1
  Te  Te5  1  0.11769564  0.44034173  0.75000000  1
  Te  Te6  1  0.88230436  0.55965827  0.25000000  1
  Te  Te7  1  0.88230436  0.94034173  0.75000000  1
  F  F8  1  0.59972216  0.78958642  0.75000000  1
  F  F9  1  0.59972216  0.71041358  0.25000000  1
  F  F10  1  0.40027784  0.28958642  0.75000000  1
  F  F11  1  0.40027784  0.21041358  0.25000000  1
  F  F12  1  0.96896090  0.19254712  0.37451822  1
  F  F13  1  0.96896090  0.30745288  0.62548178  1
  F  F14  1  0.03103910  0.69254712  0.12548178  1
  F  F15  1  0.03103910  0.80745288  0.87451822  1
  F  F16  1  0.38611195  0.98811982  0.12679230  1
  F  F17  1  0.38611195  0.51188018  0.87320770  1
  F  F18  1  0.61388805  0.48811982  0.37320770  1
  F  F19  1  0.61388805  0.01188018  0.62679230  1
  F  F20  1  0.61388805  0.01188018  0.87320770  1
  F  F21  1  0.61388805  0.48811982  0.12679230  1
  F  F22  1  0.38611195  0.51188018  0.62679230  1
  F  F23  1  0.38611195  0.98811982  0.37320770  1
  F  F24  1  0.96896090  0.19254712  0.12548178  1
  F  F25  1  0.96896090  0.30745288  0.87451822  1
  F  F26  1  0.03103910  0.69254712  0.37451822  1
  F  F27  1  0.03103910  0.80745288  0.62548178  1
