# generated using pymatgen
data_Al2(SO4)3
_symmetry_space_group_name_H-M   'P 1'
_cell_length_a   8.49376622
_cell_length_b   8.49376756
_cell_length_c   8.49377179
_cell_angle_alpha   56.35278336
_cell_angle_beta   56.35276361
_cell_angle_gamma   56.35278555
_symmetry_Int_Tables_number   1
_chemical_formula_structural   Al2(SO4)3
_chemical_formula_sum   'Al4 S6 O24'
_cell_volume   396.74517547
_cell_formula_units_Z   2
loop_
 _symmetry_equiv_pos_site_id
 _symmetry_equiv_pos_as_xyz
  1  'x, y, z'
loop_
 _atom_site_type_symbol
 _atom_site_label
 _atom_site_symmetry_multiplicity
 _atom_site_fract_x
 _atom_site_fract_y
 _atom_site_fract_z
 _atom_site_occupancy
  Al  Al0  1  0.14338378  0.14338305  0.14338315  1
  Al  Al1  1  0.85661686  0.85661589  0.85661700  1
  Al  Al2  1  0.35191161  0.35191207  0.35191181  1
  Al  Al3  1  0.64808738  0.64808877  0.64808823  1
  S  S4  1  0.53939471  0.96374901  0.24844381  1
  S  S5  1  0.24844438  0.53939455  0.96374906  1
  S  S6  1  0.96374897  0.24844405  0.53939397  1
  S  S7  1  0.75155616  0.46060612  0.03625052  1
  S  S8  1  0.46060500  0.03625126  0.75155568  1
  S  S9  1  0.03625106  0.75155589  0.46060539  1
  O  O10  1  0.18417439  0.54606558  0.47596094  1
  O  O11  1  0.47596125  0.18417436  0.54606516  1
  O  O12  1  0.54606770  0.47595909  0.18417401  1
  O  O13  1  0.81582563  0.45393267  0.52404063  1
  O  O14  1  0.52403897  0.81582598  0.45393384  1
  O  O15  1  0.45393516  0.52403889  0.81582533  1
  O  O16  1  0.11188633  0.89538223  0.26382305  1
  O  O17  1  0.26382287  0.11188671  0.89538190  1
  O  O18  1  0.89538194  0.26382425  0.11188451  1
  O  O19  1  0.88811519  0.10461863  0.73617483  1
  O  O20  1  0.20486244  0.37920907  0.99296507  1
  O  O21  1  0.37920985  0.99296423  0.20486280  1
  O  O22  1  0.99296245  0.20486570  0.37921171  1
  O  O23  1  0.79513488  0.62078793  0.00703697  1
  O  O24  1  0.62079045  0.00703567  0.79513680  1
  O  O25  1  0.00703575  0.79513757  0.62078999  1
  O  O26  1  0.22853418  0.51949790  0.15646395  1
  O  O27  1  0.51949807  0.15646344  0.22853328  1
  O  O28  1  0.15646145  0.22853410  0.51949863  1
  O  O29  1  0.77146662  0.48050066  0.84353836  1
  O  O30  1  0.48050201  0.84353631  0.77146591  1
  O  O31  1  0.84353637  0.77146607  0.48050225  1
  O  O32  1  0.10461723  0.73617709  0.88811372  1
  O  O33  1  0.73617691  0.88811423  0.10461775  1
