# generated using pymatgen
data_CaSO4
_symmetry_space_group_name_H-M   'P 1'
_cell_length_a   4.67136498
_cell_length_b   4.67136581
_cell_length_c   7.00520065
_cell_angle_alpha   90.00000000
_cell_angle_beta   90.00000000
_cell_angle_gamma   96.80537999
_symmetry_Int_Tables_number   1
_chemical_formula_structural   CaSO4
_chemical_formula_sum   'Ca2 S2 O8'
_cell_volume   151.78804115
_cell_formula_units_Z   2
loop_
 _symmetry_equiv_pos_site_id
 _symmetry_equiv_pos_as_xyz
  1  'x, y, z'
loop_
 _atom_site_type_symbol
 _atom_site_label
 _atom_site_symmetry_multiplicity
 _atom_site_fract_x
 _atom_site_fract_y
 _atom_site_fract_z
 _atom_site_occupancy
  Ca  Ca0  1  0.35095202  0.35095202  0.75000000  1
  Ca  Ca1  1  0.64904798  0.64904798  0.25000000  1
  S  S2  1  0.84766311  0.84766311  0.75000000  1
  S  S3  1  0.15233689  0.15233689  0.25000000  1
  O  O4  1  0.15852505  0.81840855  0.75000000  1
  O  O5  1  0.84147495  0.18159145  0.25000000  1
  O  O6  1  0.81840855  0.15852505  0.75000000  1
  O  O7  1  0.18159145  0.84147495  0.25000000  1
  O  O8  1  0.29483199  0.29483199  0.08153031  1
  O  O9  1  0.70516801  0.70516801  0.58153031  1
  O  O10  1  0.29483199  0.29483199  0.41846969  1
  O  O11  1  0.70516801  0.70516801  0.91846969  1
