# generated using pymatgen
data_TbAlO3
_symmetry_space_group_name_H-M   'P 1'
_cell_length_a   5.19165377
_cell_length_b   5.30555533
_cell_length_c   7.39404835
_cell_angle_alpha   90.00000000
_cell_angle_beta   90.00000000
_cell_angle_gamma   90.00000000
_symmetry_Int_Tables_number   1
_chemical_formula_structural   TbAlO3
_chemical_formula_sum   'Tb4 Al4 O12'
_cell_volume   203.66615099
_cell_formula_units_Z   4
loop_
 _symmetry_equiv_pos_site_id
 _symmetry_equiv_pos_as_xyz
  1  'x, y, z'
loop_
 _atom_site_type_symbol
 _atom_site_label
 _atom_site_symmetry_multiplicity
 _atom_site_fract_x
 _atom_site_fract_y
 _atom_site_fract_z
 _atom_site_occupancy
  Tb  Tb0  1  0.01117385  0.04845325  0.25000000  1
  Tb  Tb1  1  0.51117385  0.45154675  0.75000000  1
  Tb  Tb2  1  0.48882615  0.54845325  0.25000000  1
  Tb  Tb3  1  0.98882615  0.95154675  0.75000000  1
  Al  Al4  1  0.50000000  -0.00000000  0.00000000  1
  Al  Al5  1  -0.00000000  0.50000000  0.00000000  1
  Al  Al6  1  -0.00000000  0.50000000  0.50000000  1
  Al  Al7  1  0.50000000  -0.00000000  0.50000000  1
  O  O8  1  0.29044193  0.29067158  0.45741062  1
  O  O9  1  0.79044193  0.20932842  0.54258938  1
  O  O10  1  0.20955807  0.79067158  0.04258938  1
  O  O11  1  0.70955807  0.70932842  0.95741062  1
  O  O12  1  0.70955807  0.70932842  0.54258938  1
  O  O13  1  0.20955807  0.79067158  0.45741062  1
  O  O14  1  0.79044193  0.20932842  0.95741062  1
  O  O15  1  0.29044193  0.29067158  0.04258938  1
  O  O16  1  0.91979419  0.48105611  0.25000000  1
  O  O17  1  0.41979419  0.01894389  0.75000000  1
  O  O18  1  0.58020581  0.98105611  0.25000000  1
  O  O19  1  0.08020581  0.51894389  0.75000000  1
