# generated using pymatgen
data_Th(Al2Fe)4
_symmetry_space_group_name_H-M   'P 1'
_cell_length_a   4.99366205
_cell_length_b   6.71645220
_cell_length_c   6.71653109
_cell_angle_alpha   82.04865330
_cell_angle_beta   68.14929815
_cell_angle_gamma   68.14936897
_symmetry_Int_Tables_number   1
_chemical_formula_structural   Th(Al2Fe)4
_chemical_formula_sum   'Th1 Al8 Fe4'
_cell_volume   194.06492300
_cell_formula_units_Z   1
loop_
 _symmetry_equiv_pos_site_id
 _symmetry_equiv_pos_as_xyz
  1  'x, y, z'
loop_
 _atom_site_type_symbol
 _atom_site_label
 _atom_site_symmetry_multiplicity
 _atom_site_fract_x
 _atom_site_fract_y
 _atom_site_fract_z
 _atom_site_occupancy
  Th  Th0  1  0.00000000  -0.00000000  0.00000000  1
  Al  Al1  1  0.72633244  0.77368661  0.77372527  1
  Al  Al2  1  0.49999402  0.22634820  0.77367696  1
  Al  Al3  1  0.50000598  0.77365180  0.22632304  1
  Al  Al4  1  0.27366756  0.22631339  0.22627473  1
  Al  Al5  1  0.65304326  0.34697565  0.34694528  1
  Al  Al6  1  0.34695674  0.65302435  0.65305472  1
  Al  Al7  1  -0.00001500  0.34691012  0.65311968  1
  Al  Al8  1  0.00001500  0.65308988  0.34688032  1
  Fe  Fe9  1  0.00000000  -0.00000000  0.50000000  1
  Fe  Fe10  1  0.50000000  0.50000000  0.00000000  1
  Fe  Fe11  1  0.00000000  0.50000000  0.00000000  1
  Fe  Fe12  1  0.50000000  -0.00000000  0.50000000  1
