# generated using pymatgen
data_BaAlF5
_symmetry_space_group_name_H-M   'P 1'
_cell_length_a   4.87478029
_cell_length_b   5.62624815
_cell_length_c   13.72833824
_cell_angle_alpha   90.00000000
_cell_angle_beta   90.00000000
_cell_angle_gamma   90.00000000
_symmetry_Int_Tables_number   1
_chemical_formula_structural   BaAlF5
_chemical_formula_sum   'Ba4 Al4 F20'
_cell_volume   376.52333823
_cell_formula_units_Z   4
loop_
 _symmetry_equiv_pos_site_id
 _symmetry_equiv_pos_as_xyz
  1  'x, y, z'
loop_
 _atom_site_type_symbol
 _atom_site_label
 _atom_site_symmetry_multiplicity
 _atom_site_fract_x
 _atom_site_fract_y
 _atom_site_fract_z
 _atom_site_occupancy
  Ba  Ba0  1  0.77551239  0.34106972  0.34204731  1
  Ba  Ba1  1  0.27551239  0.15893028  0.65795269  1
  Ba  Ba2  1  0.22448761  0.84106972  0.15795269  1
  Ba  Ba3  1  0.72448761  0.65893028  0.84204731  1
  Al  Al4  1  0.18184559  0.85054580  0.41621107  1
  Al  Al5  1  0.68184559  0.64945420  0.58378893  1
  Al  Al6  1  0.81815441  0.35054580  0.08378893  1
  Al  Al7  1  0.31815441  0.14945420  0.91621107  1
  F  F8  1  0.97664515  0.65667646  0.49917281  1
  F  F9  1  0.47664515  0.84332354  0.50082719  1
  F  F10  1  0.02335485  0.15667646  0.00082719  1
  F  F11  1  0.52335485  0.34332354  -0.00082719  1
  F  F12  1  0.89400026  0.85032914  0.33265232  1
  F  F13  1  0.39400026  0.64967086  0.66734768  1
  F  F14  1  0.10599974  0.35032914  0.16734768  1
  F  F15  1  0.60599974  0.14967086  0.83265232  1
  F  F16  1  0.94645154  0.60018498  0.01944281  1
  F  F17  1  0.44645154  0.89981502  0.98055719  1
  F  F18  1  0.05354846  0.10018498  0.48055719  1
  F  F19  1  0.55354846  0.39981502  0.51944281  1
  F  F20  1  0.64919048  0.54841008  0.16696293  1
  F  F21  1  0.14919048  0.95158992  0.83303707  1
  F  F22  1  0.35080952  0.04841008  0.33303707  1
  F  F23  1  0.85080952  0.45158992  0.66696293  1
  F  F24  1  0.19944855  0.40510725  0.85174627  1
  F  F25  1  0.69944855  0.09489275  0.14825373  1
  F  F26  1  0.80055145  0.90510725  0.64825373  1
  F  F27  1  0.30055145  0.59489275  0.35174627  1
