# generated using pymatgen
data_CeGeAu
_symmetry_space_group_name_H-M   'P 1'
_cell_length_a   4.37270946
_cell_length_b   4.37270996
_cell_length_c   8.10798612
_cell_angle_alpha   90.00000000
_cell_angle_beta   90.00000000
_cell_angle_gamma   120.00000332
_symmetry_Int_Tables_number   1
_chemical_formula_structural   CeGeAu
_chemical_formula_sum   'Ce2 Ge2 Au2'
_cell_volume   134.25946364
_cell_formula_units_Z   2
loop_
 _symmetry_equiv_pos_site_id
 _symmetry_equiv_pos_as_xyz
  1  'x, y, z'
loop_
 _atom_site_type_symbol
 _atom_site_label
 _atom_site_symmetry_multiplicity
 _atom_site_fract_x
 _atom_site_fract_y
 _atom_site_fract_z
 _atom_site_occupancy
  Ce  Ce0  1  0.00000000  0.00000000  0.50304681  1
  Ce  Ce1  1  0.00000000  0.00000000  0.00304681  1
  Ge  Ge2  1  0.33333300  0.66666700  0.72918972  1
  Ge  Ge3  1  0.66666700  0.33333300  0.22918972  1
  Au  Au4  1  0.66666700  0.33333300  0.77096347  1
  Au  Au5  1  0.33333300  0.66666700  0.27096347  1
