# generated using pymatgen
data_Eu2SiO4
_symmetry_space_group_name_H-M   'P 1'
_cell_length_a   7.07977652
_cell_length_b   5.65559189
_cell_length_c   10.91722346
_cell_angle_alpha   62.43452594
_cell_angle_beta   90.00000000
_cell_angle_gamma   90.00000000
_symmetry_Int_Tables_number   1
_chemical_formula_structural   Eu2SiO4
_chemical_formula_sum   'Eu8 Si4 O16'
_cell_volume   387.50742277
_cell_formula_units_Z   4
loop_
 _symmetry_equiv_pos_site_id
 _symmetry_equiv_pos_as_xyz
  1  'x, y, z'
loop_
 _atom_site_type_symbol
 _atom_site_label
 _atom_site_symmetry_multiplicity
 _atom_site_fract_x
 _atom_site_fract_y
 _atom_site_fract_z
 _atom_site_occupancy
  Eu  Eu0  1  0.65742639  0.81030285  0.42382990  1
  Eu  Eu1  1  0.34257361  0.18969715  0.57617010  1
  Eu  Eu2  1  0.50009894  0.47558992  0.80184944  1
  Eu  Eu3  1  0.15742639  0.18969715  0.07617010  1
  Eu  Eu4  1  0.99990106  0.47558992  0.30184944  1
  Eu  Eu5  1  0.00009894  0.52441008  0.69815056  1
  Eu  Eu6  1  0.49990106  0.52441008  0.19815056  1
  Eu  Eu7  1  0.84257361  0.81030285  0.92382990  1
  Si  Si8  1  0.77974108  0.15956626  0.58175644  1
  Si  Si9  1  0.27974108  0.84043374  0.91824356  1
  Si  Si10  1  0.72025892  0.15956626  0.08175644  1
  Si  Si11  1  0.22025892  0.84043374  0.41824356  1
  O  O12  1  0.23578767  0.15543394  0.81810219  1
  O  O13  1  0.17641909  0.65021464  0.86098421  1
  O  O14  1  0.82358091  0.34978536  0.13901579  1
  O  O15  1  0.76421233  0.84456606  0.18189781  1
  O  O16  1  0.68268912  0.24804808  0.42917354  1
  O  O17  1  0.18268912  0.75195192  0.07082646  1
  O  O18  1  0.73578767  0.84456606  0.68189781  1
  O  O19  1  0.31731088  0.75195192  0.57082646  1
  O  O20  1  0.00532802  0.21275029  0.56859286  1
  O  O21  1  0.49467198  0.21275029  0.06859286  1
  O  O22  1  0.67641909  0.34978536  0.63901579  1
  O  O23  1  0.32358091  0.65021464  0.36098421  1
  O  O24  1  0.50532802  0.78724971  0.93140714  1
  O  O25  1  0.99467198  0.78724971  0.43140714  1
  O  O26  1  0.81731088  0.24804808  0.92917354  1
  O  O27  1  0.26421233  0.15543394  0.31810219  1
