# generated using pymatgen
data_Na3B5Pt9
_symmetry_space_group_name_H-M   'P 1'
_cell_length_a   6.36336056
_cell_length_b   6.36336056
_cell_length_c   15.17349689
_cell_angle_alpha   90.00000000
_cell_angle_beta   90.00000000
_cell_angle_gamma   128.14761879
_symmetry_Int_Tables_number   1
_chemical_formula_structural   Na3B5Pt9
_chemical_formula_sum   'Na6 B10 Pt18'
_cell_volume   483.18601852
_cell_formula_units_Z   2
loop_
 _symmetry_equiv_pos_site_id
 _symmetry_equiv_pos_as_xyz
  1  'x, y, z'
loop_
 _atom_site_type_symbol
 _atom_site_label
 _atom_site_symmetry_multiplicity
 _atom_site_fract_x
 _atom_site_fract_y
 _atom_site_fract_z
 _atom_site_occupancy
  Na  Na0  1  0.31369000  0.68631000  0.75000000  1
  Na  Na1  1  0.68631000  0.31369000  0.25000000  1
  Na  Na2  1  0.55941038  0.44058962  0.08584400  1
  Na  Na3  1  0.44058962  0.55941038  0.91415600  1
  Na  Na4  1  0.44058962  0.55941038  0.58584400  1
  Na  Na5  1  0.55941038  0.44058962  0.41415600  1
  B  B6  1  0.94453668  0.05546332  0.14671331  1
  B  B7  1  0.05546332  0.94453668  0.85328669  1
  B  B8  1  0.05546332  0.94453668  0.64671331  1
  B  B9  1  0.94453668  0.05546332  0.35328669  1
  B  B10  1  0.18937501  0.81062499  0.02785787  1
  B  B11  1  0.81062499  0.18937501  0.97214213  1
  B  B12  1  0.81062499  0.18937501  0.52785787  1
  B  B13  1  0.18937501  0.81062499  0.47214213  1
  B  B14  1  0.72817457  0.27182543  0.75000000  1
  B  B15  1  0.27182543  0.72817457  0.25000000  1
  Pt  Pt16  1  -0.00000000  0.00000000  -0.00000000  1
  Pt  Pt17  1  -0.00000000  0.00000000  0.50000000  1
  Pt  Pt18  1  0.65841927  0.83364066  0.25000000  1
  Pt  Pt19  1  0.83364066  0.65841927  0.75000000  1
  Pt  Pt20  1  0.34158073  0.16635934  0.75000000  1
  Pt  Pt21  1  0.16635934  0.34158073  0.25000000  1
  Pt  Pt22  1  0.12771869  0.87228131  0.15695821  1
  Pt  Pt23  1  0.87228131  0.12771869  0.84304179  1
  Pt  Pt24  1  0.87228131  0.12771869  0.65695821  1
  Pt  Pt25  1  0.12771869  0.87228131  0.34304179  1
  Pt  Pt26  1  0.56852195  0.93603438  0.07885565  1
  Pt  Pt27  1  0.93603438  0.56852195  0.92114435  1
  Pt  Pt28  1  0.43147805  0.06396562  0.57885565  1
  Pt  Pt29  1  0.06396562  0.43147805  0.42114435  1
  Pt  Pt30  1  0.43147805  0.06396562  0.92114435  1
  Pt  Pt31  1  0.06396562  0.43147805  0.07885565  1
  Pt  Pt32  1  0.56852195  0.93603438  0.42114435  1
  Pt  Pt33  1  0.93603438  0.56852195  0.57885565  1
