# generated using pymatgen
data_Ce(PO3)3
_symmetry_space_group_name_H-M   'P 1'
_cell_length_a   7.08286514
_cell_length_b   7.08275503
_cell_length_c   7.33885591
_cell_angle_alpha   89.99969382
_cell_angle_beta   89.99934275
_cell_angle_gamma   104.77931453
_symmetry_Int_Tables_number   1
_chemical_formula_structural   Ce(PO3)3
_chemical_formula_sum   'Ce2 P6 O18'
_cell_volume   355.98204979
_cell_formula_units_Z   2
loop_
 _symmetry_equiv_pos_site_id
 _symmetry_equiv_pos_as_xyz
  1  'x, y, z'
loop_
 _atom_site_type_symbol
 _atom_site_label
 _atom_site_symmetry_multiplicity
 _atom_site_fract_x
 _atom_site_fract_y
 _atom_site_fract_z
 _atom_site_occupancy
  Ce  Ce0  1  0.37010605  0.37012681  0.00000026  1
  Ce  Ce1  1  0.62994252  0.62982042  0.49999586  1
  P  P2  1  0.83253680  0.18271667  0.04673662  1
  P  P3  1  0.16747707  0.81728503  0.54673844  1
  P  P4  1  0.18272409  0.83254642  0.95326312  1
  P  P5  1  0.81727333  0.16744374  0.45326665  1
  P  P6  1  0.75219389  0.75218098  -0.00000201  1
  P  P7  1  0.24779917  0.24782296  0.49999694  1
  O  O8  1  0.75297553  0.97045018  0.95904604  1
  O  O9  1  0.24702156  0.02955739  0.45904577  1
  O  O10  1  0.97046076  0.75298096  0.04096021  1
  O  O11  1  0.02953052  0.24702597  0.54096201  1
  O  O12  1  0.67651002  0.63730531  0.83214856  1
  O  O13  1  0.32348605  0.36270288  0.33214887  1
  O  O14  1  0.63731634  0.67647393  0.16784081  1
  O  O15  1  0.36267510  0.32352892  0.66783956  1
  O  O16  1  0.71782696  0.32674246  0.46066962  1
  O  O17  1  0.28217222  0.67325836  0.96067500  1
  O  O18  1  0.32674277  0.71782947  0.53931746  1
  O  O19  1  0.67325636  0.28217048  0.03932398  1
  O  O20  1  0.72188722  0.97712042  0.53749731  1
  O  O21  1  0.27809180  0.02288335  0.03748900  1
  O  O22  1  0.97711970  0.72193854  0.46251989  1
  O  O23  1  0.02287657  0.27808324  0.96251329  1
  O  O24  1  0.87422269  0.12577174  0.25000275  1
  O  O25  1  0.12577496  0.87423334  0.75000200  1
