# generated using pymatgen
data_Ge7Ir3
_symmetry_space_group_name_H-M   'P 1'
_cell_length_a   7.54163839
_cell_length_b   7.54163856
_cell_length_c   7.54163895
_cell_angle_alpha   109.47121629
_cell_angle_beta   109.47121675
_cell_angle_gamma   109.47122410
_symmetry_Int_Tables_number   1
_chemical_formula_structural   Ge7Ir3
_chemical_formula_sum   'Ge14 Ir6'
_cell_volume   330.19864811
_cell_formula_units_Z   2
loop_
 _symmetry_equiv_pos_site_id
 _symmetry_equiv_pos_as_xyz
  1  'x, y, z'
loop_
 _atom_site_type_symbol
 _atom_site_label
 _atom_site_symmetry_multiplicity
 _atom_site_fract_x
 _atom_site_fract_y
 _atom_site_fract_z
 _atom_site_occupancy
  Ge  Ge0  1  0.50000000  0.75000000  0.25000000  1
  Ge  Ge1  1  0.75000000  0.50000000  0.25000000  1
  Ge  Ge2  1  0.25000000  0.50000000  0.75000000  1
  Ge  Ge3  1  0.75000000  0.25000000  0.50000000  1
  Ge  Ge4  1  0.25000000  0.75000000  0.50000000  1
  Ge  Ge5  1  0.50000000  0.25000000  0.75000000  1
  Ge  Ge6  1  0.33461705  0.33461705  0.33461705  1
  Ge  Ge7  1  0.33461705  0.00000000  -0.00000000  1
  Ge  Ge8  1  0.00000000  0.33461705  -0.00000000  1
  Ge  Ge9  1  -0.00000000  -0.00000000  0.33461705  1
  Ge  Ge10  1  -0.00000000  0.66538295  0.00000000  1
  Ge  Ge11  1  0.00000000  0.00000000  0.66538295  1
  Ge  Ge12  1  0.66538295  -0.00000000  0.00000000  1
  Ge  Ge13  1  0.66538295  0.66538295  0.66538295  1
  Ir  Ir14  1  -0.00000000  0.33954680  0.33954680  1
  Ir  Ir15  1  0.33954680  -0.00000000  0.33954680  1
  Ir  Ir16  1  0.66045320  0.00000000  0.66045320  1
  Ir  Ir17  1  0.66045320  0.66045320  0.00000000  1
  Ir  Ir18  1  0.33954680  0.33954680  -0.00000000  1
  Ir  Ir19  1  0.00000000  0.66045320  0.66045320  1
