# generated using pymatgen
data_HoRh2
_symmetry_space_group_name_H-M   'P 1'
_cell_length_a   5.28316971
_cell_length_b   5.28316972
_cell_length_c   5.28317050
_cell_angle_alpha   60.00000149
_cell_angle_beta   60.00000145
_cell_angle_gamma   59.99999374
_symmetry_Int_Tables_number   1
_chemical_formula_structural   HoRh2
_chemical_formula_sum   'Ho2 Rh4'
_cell_volume   104.27224930
_cell_formula_units_Z   2
loop_
 _symmetry_equiv_pos_site_id
 _symmetry_equiv_pos_as_xyz
  1  'x, y, z'
loop_
 _atom_site_type_symbol
 _atom_site_label
 _atom_site_symmetry_multiplicity
 _atom_site_fract_x
 _atom_site_fract_y
 _atom_site_fract_z
 _atom_site_occupancy
  Ho  Ho0  1  0.12500000  0.12500000  0.12500000  1
  Ho  Ho1  1  0.87500000  0.87500000  0.87500000  1
  Rh  Rh2  1  0.50000000  0.00000000  0.50000000  1
  Rh  Rh3  1  0.00000000  0.50000000  0.50000000  1
  Rh  Rh4  1  0.50000000  0.50000000  0.50000000  1
  Rh  Rh5  1  0.50000000  0.50000000  -0.00000000  1
