# generated using pymatgen
data_K5NaS4(ClO6)2
_symmetry_space_group_name_H-M   'P 1'
_cell_length_a   8.47602684
_cell_length_b   8.47602684
_cell_length_c   11.54890903
_cell_angle_alpha   90.00000000
_cell_angle_beta   90.00000000
_cell_angle_gamma   90.00000000
_symmetry_Int_Tables_number   1
_chemical_formula_structural   K5NaS4(ClO6)2
_chemical_formula_sum   'K10 Na2 S8 Cl4 O24'
_cell_volume   829.70862896
_cell_formula_units_Z   2
loop_
 _symmetry_equiv_pos_site_id
 _symmetry_equiv_pos_as_xyz
  1  'x, y, z'
loop_
 _atom_site_type_symbol
 _atom_site_label
 _atom_site_symmetry_multiplicity
 _atom_site_fract_x
 _atom_site_fract_y
 _atom_site_fract_z
 _atom_site_occupancy
  K  K0  1  0.00000000  0.00000000  0.50000000  1
  K  K1  1  0.50000000  0.50000000  0.00000000  1
  K  K2  1  0.81618733  0.68381267  0.25000000  1
  K  K3  1  0.18381267  0.31618733  0.25000000  1
  K  K4  1  0.68381267  0.18381267  0.75000000  1
  K  K5  1  0.31618733  0.81618733  0.75000000  1
  K  K6  1  0.68381267  0.18381267  0.25000000  1
  K  K7  1  0.31618733  0.81618733  0.25000000  1
  K  K8  1  0.18381267  0.31618733  0.75000000  1
  K  K9  1  0.81618733  0.68381267  0.75000000  1
  Na  Na10  1  0.50000000  0.50000000  0.50000000  1
  Na  Na11  1  0.00000000  0.00000000  0.00000000  1
  S  S12  1  0.57169819  0.89598573  0.50000000  1
  S  S13  1  0.42830181  0.10401427  0.50000000  1
  S  S14  1  0.92830181  0.39598573  0.00000000  1
  S  S15  1  0.07169819  0.60401427  0.00000000  1
  S  S16  1  0.89598573  0.42830181  0.50000000  1
  S  S17  1  0.10401427  0.57169819  0.50000000  1
  S  S18  1  0.39598573  0.07169819  0.00000000  1
  S  S19  1  0.60401427  0.92830181  0.00000000  1
  Cl  Cl20  1  0.50000000  0.50000000  0.26483341  1
  Cl  Cl21  1  0.00000000  0.00000000  0.76483341  1
  Cl  Cl22  1  0.50000000  0.50000000  0.73516659  1
  Cl  Cl23  1  0.00000000  0.00000000  0.23516659  1
  O  O24  1  0.76954074  0.54412579  0.50000000  1
  O  O25  1  0.23045926  0.45587421  0.50000000  1
  O  O26  1  0.73045926  0.04412579  0.00000000  1
  O  O27  1  0.26954074  0.95587421  0.00000000  1
  O  O28  1  0.54412579  0.23045926  0.50000000  1
  O  O29  1  0.45587421  0.76954074  0.50000000  1
  O  O30  1  0.04412579  0.26954074  0.00000000  1
  O  O31  1  0.95587421  0.73045926  0.00000000  1
  O  O32  1  0.09225714  0.66506974  0.39445917  1
  O  O33  1  0.90774286  0.33493026  0.39445917  1
  O  O34  1  0.40774286  0.16506974  0.89445917  1
  O  O35  1  0.59225714  0.83493026  0.89445917  1
  O  O36  1  0.66506974  0.90774286  0.39445917  1
  O  O37  1  0.33493026  0.09225714  0.39445917  1
  O  O38  1  0.16506974  0.59225714  0.89445917  1
  O  O39  1  0.83493026  0.40774286  0.89445917  1
  O  O40  1  0.90774286  0.33493026  0.60554083  1
  O  O41  1  0.09225714  0.66506974  0.60554083  1
  O  O42  1  0.59225714  0.83493026  0.10554083  1
  O  O43  1  0.40774286  0.16506974  0.10554083  1
  O  O44  1  0.33493026  0.09225714  0.60554083  1
  O  O45  1  0.66506974  0.90774286  0.60554083  1
  O  O46  1  0.83493026  0.40774286  0.10554083  1
  O  O47  1  0.16506974  0.59225714  0.10554083  1
