# generated using pymatgen
data_SiO2
_symmetry_space_group_name_H-M   'P 1'
_cell_length_a   5.12038962
_cell_length_b   5.12038933
_cell_length_c   6.75529538
_cell_angle_alpha   98.64010148
_cell_angle_beta   98.64009882
_cell_angle_gamma   96.15911905
_symmetry_Int_Tables_number   1
_chemical_formula_structural   SiO2
_chemical_formula_sum   'Si4 O8'
_cell_volume   171.58120415
_cell_formula_units_Z   4
loop_
 _symmetry_equiv_pos_site_id
 _symmetry_equiv_pos_as_xyz
  1  'x, y, z'
loop_
 _atom_site_type_symbol
 _atom_site_label
 _atom_site_symmetry_multiplicity
 _atom_site_fract_x
 _atom_site_fract_y
 _atom_site_fract_z
 _atom_site_occupancy
  Si  Si0  1  0.44521716  0.18561552  0.56966884  1
  Si  Si1  1  0.81438448  0.55478284  0.43033116  1
  Si  Si2  1  0.99315431  0.99665382  0.76341440  1
  Si  Si3  1  0.00334618  0.00684469  0.23658560  1
  O  O4  1  0.23813578  0.20474439  0.72926254  1
  O  O5  1  0.53172791  0.46827209  0.50000000  1
  O  O6  1  0.01150839  0.70478525  0.63729709  1
  O  O7  1  0.91617925  0.29024147  0.32355660  1
  O  O8  1  0.79525561  0.76186422  0.27073746  1
  O  O9  1  0.01418765  0.98581235  0.00000000  1
  O  O10  1  0.70975853  0.08382075  0.67644340  1
  O  O11  1  0.29521475  0.98849161  0.36270291  1
