# generated using pymatgen
data_Gd(FeSi)2
_symmetry_space_group_name_H-M   'P 1'
_cell_length_a   3.90086364
_cell_length_b   3.90086260
_cell_length_c   5.66624801
_cell_angle_alpha   110.13414896
_cell_angle_beta   110.13415864
_cell_angle_gamma   89.99997604
_symmetry_Int_Tables_number   1
_chemical_formula_structural   Gd(FeSi)2
_chemical_formula_sum   'Gd1 Fe2 Si2'
_cell_volume   75.31590382
_cell_formula_units_Z   1
loop_
 _symmetry_equiv_pos_site_id
 _symmetry_equiv_pos_as_xyz
  1  'x, y, z'
loop_
 _atom_site_type_symbol
 _atom_site_label
 _atom_site_symmetry_multiplicity
 _atom_site_fract_x
 _atom_site_fract_y
 _atom_site_fract_z
 _atom_site_occupancy
  Gd  Gd0  1  0.00000000  0.00000000  0.00000000  1
  Fe  Fe1  1  0.75000000  0.25000000  0.50000000  1
  Fe  Fe2  1  0.25000000  0.75000000  0.50000000  1
  Si  Si3  1  0.36973957  0.36973957  0.73948014  1
  Si  Si4  1  0.63026043  0.63026043  0.26051986  1
