# generated using pymatgen
data_Cu2HgGeS4
_symmetry_space_group_name_H-M   'P 1'
_cell_length_a   6.30823753
_cell_length_b   6.52149587
_cell_length_c   7.67806257
_cell_angle_alpha   90.00000000
_cell_angle_beta   90.00000000
_cell_angle_gamma   90.00000000
_symmetry_Int_Tables_number   1
_chemical_formula_structural   Cu2HgGeS4
_chemical_formula_sum   'Cu4 Hg2 Ge2 S8'
_cell_volume   315.86892938
_cell_formula_units_Z   2
loop_
 _symmetry_equiv_pos_site_id
 _symmetry_equiv_pos_as_xyz
  1  'x, y, z'
loop_
 _atom_site_type_symbol
 _atom_site_label
 _atom_site_symmetry_multiplicity
 _atom_site_fract_x
 _atom_site_fract_y
 _atom_site_fract_z
 _atom_site_occupancy
  Cu  Cu0  1  0.02341151  0.16670873  0.75043722  1
  Cu  Cu1  1  0.52341151  0.83329127  0.74956278  1
  Cu  Cu2  1  0.02341151  0.16670873  0.24956278  1
  Cu  Cu3  1  0.52341151  0.83329127  0.25043722  1
  Hg  Hg4  1  0.52741491  0.34875666  -0.00000000  1
  Hg  Hg5  1  0.02741491  0.65124334  0.50000000  1
  Ge  Ge6  1  0.01811196  0.67568437  -0.00000000  1
  Ge  Ge7  1  0.51811196  0.32431563  0.50000000  1
  S  S8  1  0.38329608  0.15680651  0.26935333  1
  S  S9  1  0.88329608  0.84319349  0.76935333  1
  S  S10  1  0.38329608  0.15680651  0.73064667  1
  S  S11  1  0.92913903  0.34016239  -0.00000000  1
  S  S12  1  0.42913903  0.65983761  0.50000000  1
  S  S13  1  0.87391791  0.28916071  0.50000000  1
  S  S14  1  0.37391791  0.71083929  -0.00000000  1
  S  S15  1  0.88329608  0.84319349  0.23064667  1
