# generated using pymatgen
data_K2NaAl3F12
_symmetry_space_group_name_H-M   'P 1'
_cell_length_a   6.84497315
_cell_length_b   6.93377407
_cell_length_c   9.55250590
_cell_angle_alpha   90.00000000
_cell_angle_beta   89.61596895
_cell_angle_gamma   90.00000000
_symmetry_Int_Tables_number   1
_chemical_formula_structural   K2NaAl3F12
_chemical_formula_sum   'K4 Na2 Al6 F24'
_cell_volume   453.36604926
_cell_formula_units_Z   2
loop_
 _symmetry_equiv_pos_site_id
 _symmetry_equiv_pos_as_xyz
  1  'x, y, z'
loop_
 _atom_site_type_symbol
 _atom_site_label
 _atom_site_symmetry_multiplicity
 _atom_site_fract_x
 _atom_site_fract_y
 _atom_site_fract_z
 _atom_site_occupancy
  K  K0  1  0.46197142  0.75000000  0.35536968  1
  K  K1  1  0.01696985  0.75000000  0.10425566  1
  K  K2  1  0.53802858  0.25000000  0.64463032  1
  K  K3  1  0.98303015  0.25000000  0.89574434  1
  Na  Na4  1  0.20677154  0.25000000  0.23869584  1
  Na  Na5  1  0.79322846  0.75000000  0.76130416  1
  Al  Al6  1  0.50000000  -0.00000000  -0.00000000  1
  Al  Al7  1  0.31378231  0.75000000  0.71571869  1
  Al  Al8  1  0.68621769  0.25000000  0.28428131  1
  Al  Al9  1  -0.00000000  0.50000000  0.50000000  1
  Al  Al10  1  0.50000000  0.50000000  -0.00000000  1
  Al  Al11  1  -0.00000000  -0.00000000  0.50000000  1
  F  F12  1  0.21863831  0.56158665  0.60086765  1
  F  F13  1  0.13046179  0.95841715  0.34342138  1
  F  F14  1  0.74291020  0.54810344  0.95228210  1
  F  F15  1  0.86953821  0.04158285  0.65657862  1
  F  F16  1  0.78136169  0.06158665  0.39913235  1
  F  F17  1  0.46607795  0.75000000  0.05815233  1
  F  F18  1  0.42419997  0.55962921  0.82306847  1
  F  F19  1  0.92042818  0.75000000  0.50492881  1
  F  F20  1  0.25708980  0.04810344  0.04771790  1
  F  F21  1  0.53096834  0.75000000  0.61724920  1
  F  F22  1  0.74291020  0.95189656  0.95228210  1
  F  F23  1  0.57580003  0.44037079  0.17693153  1
  F  F24  1  0.57580003  0.05962921  0.17693153  1
  F  F25  1  0.53392205  0.25000000  0.94184767  1
  F  F26  1  0.21863831  0.93841335  0.60086765  1
  F  F27  1  0.10596395  0.75000000  0.82107585  1
  F  F28  1  0.89403605  0.25000000  0.17892415  1
  F  F29  1  0.13046179  0.54158285  0.34342138  1
  F  F30  1  0.46903166  0.25000000  0.38275080  1
  F  F31  1  0.86953821  0.45841715  0.65657862  1
  F  F32  1  0.78136169  0.43841335  0.39913235  1
  F  F33  1  0.42419997  0.94037079  0.82306847  1
  F  F34  1  0.07957182  0.25000000  0.49507119  1
  F  F35  1  0.25708980  0.45189656  0.04771790  1
