# generated using pymatgen
data_SiO2
_symmetry_space_group_name_H-M   'P 1'
_cell_length_a   7.59182852
_cell_length_b   7.59182887
_cell_length_c   7.59182971
_cell_angle_alpha   110.71457258
_cell_angle_beta   110.71456123
_cell_angle_gamma   110.71454839
_symmetry_Int_Tables_number   1
_chemical_formula_structural   SiO2
_chemical_formula_sum   'Si6 O12'
_cell_volume   320.39389708
_cell_formula_units_Z   6
loop_
 _symmetry_equiv_pos_site_id
 _symmetry_equiv_pos_as_xyz
  1  'x, y, z'
loop_
 _atom_site_type_symbol
 _atom_site_label
 _atom_site_symmetry_multiplicity
 _atom_site_fract_x
 _atom_site_fract_y
 _atom_site_fract_z
 _atom_site_occupancy
  Si  Si0  1  0.21438067  0.72974754  0.94299769  1
  Si  Si1  1  0.72974754  0.94299769  0.21438067  1
  Si  Si2  1  0.78561933  0.27025246  0.05700231  1
  Si  Si3  1  0.27025246  0.05700231  0.78561933  1
  Si  Si4  1  0.94299769  0.21438067  0.72974754  1
  Si  Si5  1  0.05700231  0.78561933  0.27025246  1
  O  O6  1  0.53693460  0.22270739  0.97002496  1
  O  O7  1  0.83420903  0.15657170  0.19610937  1
  O  O8  1  0.02997504  0.46306540  0.77729361  1
  O  O9  1  0.46306540  0.77729361  0.02997504  1
  O  O10  1  0.80389063  0.16579097  0.84342830  1
  O  O11  1  0.84342830  0.80389063  0.16579097  1
  O  O12  1  0.15657170  0.19610937  0.83420903  1
  O  O13  1  0.16579097  0.84342830  0.80389063  1
  O  O14  1  0.19610937  0.83420903  0.15657170  1
  O  O15  1  0.77729361  0.02997504  0.46306540  1
  O  O16  1  0.22270739  0.97002496  0.53693460  1
  O  O17  1  0.97002496  0.53693460  0.22270739  1
