# generated using pymatgen
data_NbTeI3
_symmetry_space_group_name_H-M   'P 1'
_cell_length_a   7.68762163
_cell_length_b   7.36842146
_cell_length_c   13.67789704
_cell_angle_alpha   81.66890642
_cell_angle_beta   90.00000000
_cell_angle_gamma   90.00000000
_symmetry_Int_Tables_number   1
_chemical_formula_structural   NbTeI3
_chemical_formula_sum   'Nb4 Te4 I12'
_cell_volume   766.61702223
_cell_formula_units_Z   4
loop_
 _symmetry_equiv_pos_site_id
 _symmetry_equiv_pos_as_xyz
  1  'x, y, z'
loop_
 _atom_site_type_symbol
 _atom_site_label
 _atom_site_symmetry_multiplicity
 _atom_site_fract_x
 _atom_site_fract_y
 _atom_site_fract_z
 _atom_site_occupancy
  Nb  Nb0  1  0.63884227  0.06571136  0.84650448  1
  Nb  Nb1  1  0.63884227  0.93428864  0.65349552  1
  Nb  Nb2  1  0.36115773  0.93428864  0.15349552  1
  Nb  Nb3  1  0.36115773  0.06571136  0.34650448  1
  Te  Te4  1  0.90230576  0.82951564  0.80157483  1
  Te  Te5  1  0.90230576  0.17048436  0.69842517  1
  Te  Te6  1  0.09769424  0.17048436  0.19842517  1
  Te  Te7  1  0.09769424  0.82951564  0.30157483  1
  I  I8  1  0.68429478  0.85367126  0.04190328  1
  I  I9  1  0.68429478  0.14632874  0.45809672  1
  I  I10  1  0.31570522  0.14632874  0.95809672  1
  I  I11  1  0.31570522  0.85367126  0.54190328  1
  I  I12  1  0.78494831  0.36142200  0.92527648  1
  I  I13  1  0.78494831  0.63857800  0.57472352  1
  I  I14  1  0.21505169  0.63857800  0.07472352  1
  I  I15  1  0.21505169  0.36142200  0.42527648  1
  I  I16  1  0.43480118  0.25154803  0.69403737  1
  I  I17  1  0.43480118  0.74845197  0.80596263  1
  I  I18  1  0.56519882  0.74845197  0.30596263  1
  I  I19  1  0.56519882  0.25154803  0.19403737  1
