# generated using pymatgen
data_ThI3
_symmetry_space_group_name_H-M   'P 1'
_cell_length_a   9.27967126
_cell_length_b   11.15995615
_cell_length_c   14.90362480
_cell_angle_alpha   90.00000000
_cell_angle_beta   90.00000000
_cell_angle_gamma   114.66090562
_symmetry_Int_Tables_number   1
_chemical_formula_structural   ThI3
_chemical_formula_sum   'Th8 I24'
_cell_volume   1402.65867815
_cell_formula_units_Z   8
loop_
 _symmetry_equiv_pos_site_id
 _symmetry_equiv_pos_as_xyz
  1  'x, y, z'
loop_
 _atom_site_type_symbol
 _atom_site_label
 _atom_site_symmetry_multiplicity
 _atom_site_fract_x
 _atom_site_fract_y
 _atom_site_fract_z
 _atom_site_occupancy
  Th  Th0  1  0.50000000  -0.00000000  0.00000000  1
  Th  Th1  1  0.50000000  -0.00000000  0.50000000  1
  Th  Th2  1  0.50000000  -0.00000000  0.75012208  1
  Th  Th3  1  0.50000000  -0.00000000  0.24987792  1
  Th  Th4  1  0.84369200  0.34450053  0.00000000  1
  Th  Th5  1  0.49898742  0.65535837  0.50000000  1
  Th  Th6  1  0.15630800  0.65549947  0.00000000  1
  Th  Th7  1  0.50101258  0.34464263  0.50000000  1
  I  I8  1  -0.00000000  0.50000000  0.81982156  1
  I  I9  1  0.50000000  0.50000000  0.68003710  1
  I  I10  1  -0.00000000  0.50000000  0.18017844  1
  I  I11  1  0.50000000  0.50000000  0.31996290  1
  I  I12  1  0.17700165  0.90449471  0.86983943  1
  I  I13  1  0.27247614  0.09486614  0.63003914  1
  I  I14  1  0.82299835  0.09550529  0.86983943  1
  I  I15  1  0.72752386  0.90513386  0.63003914  1
  I  I16  1  0.82299835  0.09550529  0.13016057  1
  I  I17  1  0.72752386  0.90513386  0.36996086  1
  I  I18  1  0.17700165  0.90449471  0.13016057  1
  I  I19  1  0.27247614  0.09486614  0.36996086  1
  I  I20  1  0.27227567  0.75161264  0.62799387  1
  I  I21  1  0.52080481  0.24853013  0.87193720  1
  I  I22  1  0.72772433  0.24838736  0.62799387  1
  I  I23  1  0.47919519  0.75146987  0.87193720  1
  I  I24  1  0.72772433  0.24838736  0.37200613  1
  I  I25  1  0.47919519  0.75146987  0.12806280  1
  I  I26  1  0.27227567  0.75161264  0.37200613  1
  I  I27  1  0.52080481  0.24853013  0.12806280  1
  I  I28  1  0.20932886  0.38884222  0.00000000  1
  I  I29  1  0.82044878  0.61174750  0.50000000  1
  I  I30  1  0.79067114  0.61115778  0.00000000  1
  I  I31  1  0.17955122  0.38825250  0.50000000  1
