# generated using pymatgen
data_Cs2UBr6
_symmetry_space_group_name_H-M   'P 1'
_cell_length_a   7.91351182
_cell_length_b   7.91351189
_cell_length_c   7.94379216
_cell_angle_alpha   59.87333399
_cell_angle_beta   59.87333366
_cell_angle_gamma   60.25332414
_symmetry_Int_Tables_number   1
_chemical_formula_structural   Cs2UBr6
_chemical_formula_sum   'Cs2 U1 Br6'
_cell_volume   351.75363534
_cell_formula_units_Z   1
loop_
 _symmetry_equiv_pos_site_id
 _symmetry_equiv_pos_as_xyz
  1  'x, y, z'
loop_
 _atom_site_type_symbol
 _atom_site_label
 _atom_site_symmetry_multiplicity
 _atom_site_fract_x
 _atom_site_fract_y
 _atom_site_fract_z
 _atom_site_occupancy
  Cs  Cs0  1  0.25000000  0.25000000  0.25000000  1
  Cs  Cs1  1  0.75000000  0.75000000  0.75000000  1
  U  U2  1  -0.00000000  0.00000000  -0.00000000  1
  Br  Br3  1  0.75213503  0.24786497  0.24786497  1
  Br  Br4  1  0.75231189  0.75231189  0.24768811  1
  Br  Br5  1  0.24768811  0.24768811  0.75231189  1
  Br  Br6  1  0.75213503  0.24786497  0.75213503  1
  Br  Br7  1  0.24786497  0.75213503  0.24786497  1
  Br  Br8  1  0.24786497  0.75213503  0.75213503  1
