# generated using pymatgen
data_Eu(BO2)2
_symmetry_space_group_name_H-M   'P 1'
_cell_length_a   4.34210506
_cell_length_b   6.52316503
_cell_length_c   12.05896879
_cell_angle_alpha   90.00000000
_cell_angle_beta   90.00000000
_cell_angle_gamma   90.00000000
_symmetry_Int_Tables_number   1
_chemical_formula_structural   Eu(BO2)2
_chemical_formula_sum   'Eu4 B8 O16'
_cell_volume   341.56146241
_cell_formula_units_Z   4
loop_
 _symmetry_equiv_pos_site_id
 _symmetry_equiv_pos_as_xyz
  1  'x, y, z'
loop_
 _atom_site_type_symbol
 _atom_site_label
 _atom_site_symmetry_multiplicity
 _atom_site_fract_x
 _atom_site_fract_y
 _atom_site_fract_z
 _atom_site_occupancy
  Eu  Eu0  1  0.26327376  0.25000000  0.00000000  1
  Eu  Eu1  1  0.23672624  0.75000000  0.50000000  1
  Eu  Eu2  1  0.73672624  0.75000000  0.00000000  1
  Eu  Eu3  1  0.76327376  0.25000000  0.50000000  1
  B  B4  1  0.82858387  0.12537640  0.19425353  1
  B  B5  1  0.82858387  0.37462360  0.80574647  1
  B  B6  1  0.67141613  0.62537640  0.30574647  1
  B  B7  1  0.67141613  0.87462360  0.69425353  1
  B  B8  1  0.17141613  0.87462360  0.80574647  1
  B  B9  1  0.17141613  0.62537640  0.19425353  1
  B  B10  1  0.32858387  0.37462360  0.69425353  1
  B  B11  1  0.32858387  0.12537640  0.30574647  1
  O  O12  1  0.73306933  0.09424883  0.09094643  1
  O  O13  1  0.73306933  0.40575117  0.90905357  1
  O  O14  1  0.76693067  0.59424883  0.40905357  1
  O  O15  1  0.76693067  0.90575117  0.59094643  1
  O  O16  1  0.26693067  0.90575117  0.90905357  1
  O  O17  1  0.26693067  0.59424883  0.09094643  1
  O  O18  1  0.23306933  0.40575117  0.59094643  1
  O  O19  1  0.23306933  0.09424883  0.40905357  1
  O  O20  1  0.14789167  0.14539665  0.21124213  1
  O  O21  1  0.14789167  0.35460335  0.78875787  1
  O  O22  1  0.35210833  0.64539665  0.28875787  1
  O  O23  1  0.35210833  0.85460335  0.71124213  1
  O  O24  1  0.85210833  0.85460335  0.78875787  1
  O  O25  1  0.85210833  0.64539665  0.21124213  1
  O  O26  1  0.64789167  0.35460335  0.71124213  1
  O  O27  1  0.64789167  0.14539665  0.28875787  1
