# generated using pymatgen
data_La(SiRu)2
_symmetry_space_group_name_H-M   'P 1'
_cell_length_a   4.23157251
_cell_length_b   4.23157273
_cell_length_c   5.81935826
_cell_angle_alpha   111.32005434
_cell_angle_beta   111.32003987
_cell_angle_gamma   90.00000549
_symmetry_Int_Tables_number   1
_chemical_formula_structural   La(SiRu)2
_chemical_formula_sum   'La1 Si2 Ru2'
_cell_volume   89.37301445
_cell_formula_units_Z   1
loop_
 _symmetry_equiv_pos_site_id
 _symmetry_equiv_pos_as_xyz
  1  'x, y, z'
loop_
 _atom_site_type_symbol
 _atom_site_label
 _atom_site_symmetry_multiplicity
 _atom_site_fract_x
 _atom_site_fract_y
 _atom_site_fract_z
 _atom_site_occupancy
  La  La0  1  0.00000000  -0.00000000  -0.00000000  1
  Si  Si1  1  0.64126467  0.64126467  0.28253034  1
  Si  Si2  1  0.35873533  0.35873533  0.71746966  1
  Ru  Ru3  1  0.75000000  0.25000000  0.50000000  1
  Ru  Ru4  1  0.25000000  0.75000000  0.50000000  1
