# generated using pymatgen
data_Eu3BrO4
_symmetry_space_group_name_H-M   'P 1'
_cell_length_a   6.42029520
_cell_length_b   6.42029520
_cell_length_c   11.78901527
_cell_angle_alpha   90.00000000
_cell_angle_beta   90.00000000
_cell_angle_gamma   142.41292182
_symmetry_Int_Tables_number   1
_chemical_formula_structural   Eu3BrO4
_chemical_formula_sum   'Eu6 Br2 O8'
_cell_volume   296.41043140
_cell_formula_units_Z   2
loop_
 _symmetry_equiv_pos_site_id
 _symmetry_equiv_pos_as_xyz
  1  'x, y, z'
loop_
 _atom_site_type_symbol
 _atom_site_label
 _atom_site_symmetry_multiplicity
 _atom_site_fract_x
 _atom_site_fract_y
 _atom_site_fract_z
 _atom_site_occupancy
  Eu  Eu0  1  0.82286902  0.17713098  0.40065078  1
  Eu  Eu1  1  0.17713098  0.82286902  0.59934922  1
  Eu  Eu2  1  0.17713098  0.82286902  0.90065078  1
  Eu  Eu3  1  0.82286902  0.17713098  0.09934922  1
  Eu  Eu4  1  0.87765719  0.12234281  0.75000000  1
  Eu  Eu5  1  0.12234281  0.87765719  0.25000000  1
  Br  Br6  1  0.50000000  0.50000000  -0.00000000  1
  Br  Br7  1  0.50000000  0.50000000  0.50000000  1
  O  O8  1  0.30145200  0.69854800  0.75000000  1
  O  O9  1  0.69854800  0.30145200  0.25000000  1
  O  O10  1  0.06486375  0.93513625  0.75000000  1
  O  O11  1  0.93513625  0.06486375  0.25000000  1
  O  O12  1  0.76728385  0.23271615  0.91198898  1
  O  O13  1  0.23271615  0.76728385  0.08801102  1
  O  O14  1  0.23271615  0.76728385  0.41198898  1
  O  O15  1  0.76728385  0.23271615  0.58801102  1
