# generated using pymatgen
data_La(FeP3)4
_symmetry_space_group_name_H-M   'P 1'
_cell_length_a   6.74876961
_cell_length_b   6.74876847
_cell_length_c   6.74876874
_cell_angle_alpha   109.47122451
_cell_angle_beta   109.47122109
_cell_angle_gamma   109.47121059
_symmetry_Int_Tables_number   1
_chemical_formula_structural   La(FeP3)4
_chemical_formula_sum   'La1 Fe4 P12'
_cell_volume   236.62020035
_cell_formula_units_Z   1
loop_
 _symmetry_equiv_pos_site_id
 _symmetry_equiv_pos_as_xyz
  1  'x, y, z'
loop_
 _atom_site_type_symbol
 _atom_site_label
 _atom_site_symmetry_multiplicity
 _atom_site_fract_x
 _atom_site_fract_y
 _atom_site_fract_z
 _atom_site_occupancy
  La  La0  1  0.00000000  -0.00000000  -0.00000000  1
  Fe  Fe1  1  0.50000000  0.50000000  0.50000000  1
  Fe  Fe2  1  0.00000000  -0.00000000  0.50000000  1
  Fe  Fe3  1  0.00000000  0.50000000  -0.00000000  1
  Fe  Fe4  1  0.50000000  -0.00000000  -0.00000000  1
  P  P5  1  0.20264650  0.35412826  0.84851725  1
  P  P6  1  0.64587174  0.15148275  0.79735350  1
  P  P7  1  0.50561301  0.35412826  0.15148275  1
  P  P8  1  0.35412826  0.15148275  0.50561301  1
  P  P9  1  0.64587174  0.84851725  0.49438699  1
  P  P10  1  0.35412826  0.84851725  0.20264650  1
  P  P11  1  0.15148275  0.50561301  0.35412826  1
  P  P12  1  0.84851725  0.49438699  0.64587174  1
  P  P13  1  0.79735350  0.64587174  0.15148275  1
  P  P14  1  0.84851725  0.20264650  0.35412826  1
  P  P15  1  0.15148275  0.79735350  0.64587174  1
  P  P16  1  0.49438699  0.64587174  0.84851725  1
