# generated using pymatgen
data_KNaSnF6
_symmetry_space_group_name_H-M   'P 1'
_cell_length_a   5.97777034
_cell_length_b   8.08349343
_cell_length_c   11.70419697
_cell_angle_alpha   90.00000000
_cell_angle_beta   90.00000000
_cell_angle_gamma   90.00000000
_symmetry_Int_Tables_number   1
_chemical_formula_structural   KNaSnF6
_chemical_formula_sum   'K4 Na4 Sn4 F24'
_cell_volume   565.56162996
_cell_formula_units_Z   4
loop_
 _symmetry_equiv_pos_site_id
 _symmetry_equiv_pos_as_xyz
  1  'x, y, z'
loop_
 _atom_site_type_symbol
 _atom_site_label
 _atom_site_symmetry_multiplicity
 _atom_site_fract_x
 _atom_site_fract_y
 _atom_site_fract_z
 _atom_site_occupancy
  K  K0  1  0.03815317  0.75490143  0.45725427  1
  K  K1  1  0.53815317  0.25490143  0.04274573  1
  K  K2  1  0.46184683  0.75490143  0.95725427  1
  K  K3  1  0.96184683  0.25490143  0.54274573  1
  Na  Na4  1  0.44485004  0.50186453  0.64772296  1
  Na  Na5  1  0.55514996  0.00186453  0.35227704  1
  Na  Na6  1  0.94485004  0.00186453  0.85227704  1
  Na  Na7  1  0.05514996  0.50186453  0.14772296  1
  Sn  Sn8  1  0.45006008  0.99985898  0.63661659  1
  Sn  Sn9  1  0.04993992  0.99985898  0.13661659  1
  Sn  Sn10  1  0.54993992  0.49985898  0.36338341  1
  Sn  Sn11  1  0.95006008  0.49985898  0.86338341  1
  F  F12  1  0.64941152  0.26742700  0.37360976  1
  F  F13  1  0.16574046  0.06421330  0.71005818  1
  F  F14  1  0.77968747  0.95745305  0.04113601  1
  F  F15  1  0.45118783  0.73361802  0.35854356  1
  F  F16  1  0.35058848  0.76742700  0.62639024  1
  F  F17  1  0.54881217  0.23361802  0.64145644  1
  F  F18  1  0.10180649  0.45315584  0.71718063  1
  F  F19  1  0.27968747  0.45745305  0.45886399  1
  F  F20  1  0.71128972  0.53760784  0.51104026  1
  F  F21  1  0.66574046  0.56421330  0.78994182  1
  F  F22  1  0.39819351  0.45315584  0.21718063  1
  F  F23  1  0.89819351  0.95315584  0.28281937  1
  F  F24  1  0.22031253  0.45745305  0.95886399  1
  F  F25  1  0.72031253  0.95745305  0.54113601  1
  F  F26  1  0.21128972  0.03760784  0.98895974  1
  F  F27  1  0.95118783  0.23361802  0.14145644  1
  F  F28  1  0.78871028  0.53760784  0.01104026  1
  F  F29  1  0.83425954  0.56421330  0.28994182  1
  F  F30  1  0.04881217  0.73361802  0.85854356  1
  F  F31  1  0.33425954  0.06421330  0.21005818  1
  F  F32  1  0.28871028  0.03760784  0.48895974  1
  F  F33  1  0.85058848  0.26742700  0.87360976  1
  F  F34  1  0.60180649  0.95315584  0.78281937  1
  F  F35  1  0.14941152  0.76742700  0.12639024  1
