# generated using pymatgen
data_Cs2IrF6
_symmetry_space_group_name_H-M   'P 1'
_cell_length_a   6.22012525
_cell_length_b   6.22011453
_cell_length_c   4.99223043
_cell_angle_alpha   90.00001032
_cell_angle_beta   89.99984044
_cell_angle_gamma   120.00028170
_symmetry_Int_Tables_number   1
_chemical_formula_structural   Cs2IrF6
_chemical_formula_sum   'Cs2 Ir1 F6'
_cell_volume   167.27133906
_cell_formula_units_Z   1
loop_
 _symmetry_equiv_pos_site_id
 _symmetry_equiv_pos_as_xyz
  1  'x, y, z'
loop_
 _atom_site_type_symbol
 _atom_site_label
 _atom_site_symmetry_multiplicity
 _atom_site_fract_x
 _atom_site_fract_y
 _atom_site_fract_z
 _atom_site_occupancy
  Cs  Cs0  1  0.66666739  0.33333342  0.20462939  1
  Cs  Cs1  1  0.33333261  0.66666658  0.79537064  1
  Ir  Ir2  1  0.00000004  -0.00000003  0.50000000  1
  F  F3  1  0.30358628  0.15179359  0.71702928  1
  F  F4  1  0.84820955  0.69641957  0.71702490  1
  F  F5  1  0.69641370  0.84820619  0.28297070  1
  F  F6  1  0.84821351  0.15178754  0.71702305  1
  F  F7  1  0.15179024  0.30358045  0.28297508  1
  F  F8  1  0.15178669  0.84821267  0.28297696  1
