# generated using pymatgen
data_K2CoCl4
_symmetry_space_group_name_H-M   'P 1'
_cell_length_a   9.55811793
_cell_length_b   6.77610761
_cell_length_c   12.67395891
_cell_angle_alpha   73.31620875
_cell_angle_beta   90.00000000
_cell_angle_gamma   90.00000000
_symmetry_Int_Tables_number   1
_chemical_formula_structural   K2CoCl4
_chemical_formula_sum   'K8 Co4 Cl16'
_cell_volume   786.29741314
_cell_formula_units_Z   4
loop_
 _symmetry_equiv_pos_site_id
 _symmetry_equiv_pos_as_xyz
  1  'x, y, z'
loop_
 _atom_site_type_symbol
 _atom_site_label
 _atom_site_symmetry_multiplicity
 _atom_site_fract_x
 _atom_site_fract_y
 _atom_site_fract_z
 _atom_site_occupancy
  K  K0  1  0.35490414  0.77734276  0.99191083  1
  K  K1  1  0.64509586  0.22265724  0.00808917  1
  K  K2  1  0.40463654  0.40767105  0.33290493  1
  K  K3  1  0.90463654  0.59232895  0.16709507  1
  K  K4  1  0.85490414  0.22265724  0.50808917  1
  K  K5  1  0.09536346  0.40767105  0.83290493  1
  K  K6  1  0.59536346  0.59232895  0.66709507  1
  K  K7  1  0.14509586  0.77734276  0.49191083  1
  Co  Co8  1  0.14714427  0.11947901  0.18010527  1
  Co  Co9  1  0.85285573  0.88052099  0.81989473  1
  Co  Co10  1  0.35285573  0.11947901  0.68010527  1
  Co  Co11  1  0.64714427  0.88052099  0.31989473  1
  Cl  Cl12  1  0.03826585  0.79242773  0.93272321  1
  Cl  Cl13  1  0.96173415  0.20757227  0.06727679  1
  Cl  Cl14  1  0.09966460  0.21649453  0.33353178  1
  Cl  Cl15  1  0.31075795  0.77872378  0.72065070  1
  Cl  Cl16  1  0.18924205  0.77872378  0.22065070  1
  Cl  Cl17  1  0.83851619  0.69891574  0.39863526  1
  Cl  Cl18  1  0.33851619  0.30108426  0.10136474  1
  Cl  Cl19  1  0.81075795  0.22127622  0.77934930  1
  Cl  Cl20  1  0.90033540  0.78350547  0.66646822  1
  Cl  Cl21  1  0.16148381  0.30108426  0.60136474  1
  Cl  Cl22  1  0.66148381  0.69891574  0.89863526  1
  Cl  Cl23  1  0.68924205  0.22127622  0.27934930  1
  Cl  Cl24  1  0.40033540  0.21649453  0.83353178  1
  Cl  Cl25  1  0.53826585  0.20757227  0.56727679  1
  Cl  Cl26  1  0.59966460  0.78350547  0.16646822  1
  Cl  Cl27  1  0.46173415  0.79242773  0.43272321  1
