# generated using pymatgen
data_Rb3(FeS2)2
_symmetry_space_group_name_H-M   'P 1'
_cell_length_a   7.42496522
_cell_length_b   11.21447541
_cell_length_c   12.07864691
_cell_angle_alpha   90.00000000
_cell_angle_beta   90.00000000
_cell_angle_gamma   90.00000000
_symmetry_Int_Tables_number   1
_chemical_formula_structural   Rb3(FeS2)2
_chemical_formula_sum   'Rb12 Fe8 S16'
_cell_volume   1005.75377788
_cell_formula_units_Z   4
loop_
 _symmetry_equiv_pos_site_id
 _symmetry_equiv_pos_as_xyz
  1  'x, y, z'
loop_
 _atom_site_type_symbol
 _atom_site_label
 _atom_site_symmetry_multiplicity
 _atom_site_fract_x
 _atom_site_fract_y
 _atom_site_fract_z
 _atom_site_occupancy
  Rb  Rb0  1  0.06783096  0.42787045  0.13833573  1
  Rb  Rb1  1  0.56783096  0.07212955  0.36166427  1
  Rb  Rb2  1  0.93216904  0.92787045  0.86166427  1
  Rb  Rb3  1  0.43216904  0.57212955  0.63833573  1
  Rb  Rb4  1  0.93216904  0.57212955  0.86166427  1
  Rb  Rb5  1  0.43216904  0.92787045  0.63833573  1
  Rb  Rb6  1  0.06783096  0.07212955  0.13833573  1
  Rb  Rb7  1  0.56783096  0.42787045  0.36166427  1
  Rb  Rb8  1  0.09124124  0.25000000  0.77279579  1
  Rb  Rb9  1  0.59124124  0.25000000  0.72720421  1
  Rb  Rb10  1  0.90875876  0.75000000  0.22720421  1
  Rb  Rb11  1  0.40875876  0.75000000  0.27279579  1
  Fe  Fe12  1  0.05032616  0.36863564  0.47151281  1
  Fe  Fe13  1  0.55032616  0.13136436  0.02848719  1
  Fe  Fe14  1  0.94967384  0.86863564  0.52848719  1
  Fe  Fe15  1  0.44967384  0.63136436  0.97151281  1
  Fe  Fe16  1  0.94967384  0.63136436  0.52848719  1
  Fe  Fe17  1  0.44967384  0.86863564  0.97151281  1
  Fe  Fe18  1  0.05032616  0.13136436  0.47151281  1
  Fe  Fe19  1  0.55032616  0.36863564  0.02848719  1
  S  S20  1  0.14235297  0.55280022  0.39428713  1
  S  S21  1  0.64235297  0.94719978  0.10571287  1
  S  S22  1  0.85764703  0.05280022  0.60571287  1
  S  S23  1  0.35764703  0.44719978  0.89428713  1
  S  S24  1  0.85764703  0.44719978  0.60571287  1
  S  S25  1  0.35764703  0.05280022  0.89428713  1
  S  S26  1  0.14235297  0.94719978  0.39428713  1
  S  S27  1  0.64235297  0.55280022  0.10571287  1
  S  S28  1  0.28792982  0.25000000  0.53167819  1
  S  S29  1  0.78792982  0.25000000  0.96832181  1
  S  S30  1  0.71207018  0.75000000  0.46832181  1
  S  S31  1  0.21207018  0.75000000  0.03167819  1
  S  S32  1  0.41279519  0.25000000  0.15775132  1
  S  S33  1  0.91279519  0.25000000  0.34224868  1
  S  S34  1  0.58720481  0.75000000  0.84224868  1
  S  S35  1  0.08720481  0.75000000  0.65775132  1
