# generated using pymatgen
data_ErCo2
_symmetry_space_group_name_H-M   'P 1'
_cell_length_a   5.01735055
_cell_length_b   5.01734834
_cell_length_c   5.01729996
_cell_angle_alpha   60.00035125
_cell_angle_beta   60.00029393
_cell_angle_gamma   60.00432455
_symmetry_Int_Tables_number   1
_chemical_formula_structural   ErCo2
_chemical_formula_sum   'Er2 Co4'
_cell_volume   89.31411053
_cell_formula_units_Z   2
loop_
 _symmetry_equiv_pos_site_id
 _symmetry_equiv_pos_as_xyz
  1  'x, y, z'
loop_
 _atom_site_type_symbol
 _atom_site_label
 _atom_site_symmetry_multiplicity
 _atom_site_fract_x
 _atom_site_fract_y
 _atom_site_fract_z
 _atom_site_occupancy
  Er  Er0  1  0.12500618  0.12500196  0.12499443  1
  Er  Er1  1  0.87499382  0.87499804  0.87500557  1
  Co  Co2  1  0.50000000  -0.00000000  0.50000000  1
  Co  Co3  1  0.00000000  0.50000000  0.50000000  1
  Co  Co4  1  0.50000000  0.50000000  0.50000000  1
  Co  Co5  1  0.50000000  0.50000000  0.00000000  1
