# generated using pymatgen
data_Na2Mn2O3
_symmetry_space_group_name_H-M   'P 1'
_cell_length_a   6.35008338
_cell_length_b   6.35292068
_cell_length_c   9.42140931
_cell_angle_alpha   90.00183920
_cell_angle_beta   89.99902980
_cell_angle_gamma   90.00008661
_symmetry_Int_Tables_number   1
_chemical_formula_structural   Na2Mn2O3
_chemical_formula_sum   'Na8 Mn8 O12'
_cell_volume   380.07449981
_cell_formula_units_Z   4
loop_
 _symmetry_equiv_pos_site_id
 _symmetry_equiv_pos_as_xyz
  1  'x, y, z'
loop_
 _atom_site_type_symbol
 _atom_site_label
 _atom_site_symmetry_multiplicity
 _atom_site_fract_x
 _atom_site_fract_y
 _atom_site_fract_z
 _atom_site_occupancy
  Na  Na0  1  0.52323634  0.73586740  0.36224236  1
  Na  Na1  1  0.47682610  0.26411376  0.86236072  1
  Na  Na2  1  0.23588692  0.97732473  0.60995164  1
  Na  Na3  1  0.76416454  0.02270597  0.11001650  1
  Na  Na4  1  0.02314582  0.76410818  0.88755182  1
  Na  Na5  1  0.97675003  0.23587421  0.38783926  1
  Na  Na6  1  0.26411816  0.47731514  0.14002651  1
  Na  Na7  1  0.73583746  0.52267565  0.64000926  1
  Mn  Mn8  1  0.74106106  0.03994017  0.63435451  1
  Mn  Mn9  1  0.75894393  0.53995639  0.11566622  1
  Mn  Mn10  1  0.25889346  0.96001550  0.13432349  1
  Mn  Mn11  1  0.24110949  0.46002807  0.61566365  1
  Mn  Mn12  1  0.46014127  0.24147089  0.38446026  1
  Mn  Mn13  1  0.96013320  0.25852730  0.86552634  1
  Mn  Mn14  1  0.53984213  0.75853597  0.88448673  1
  Mn  Mn15  1  0.03986197  0.74144168  0.36551882  1
  O  O16  1  0.18829639  0.18929412  0.00051533  1
  O  O17  1  0.68835836  0.31075050  0.24953038  1
  O  O18  1  0.81168462  0.81070847  0.50051014  1
  O  O19  1  0.31176544  0.68929421  0.74944589  1
  O  O20  1  0.74479187  0.00544981  0.85509068  1
  O  O21  1  0.25520024  0.99457119  0.35508284  1
  O  O22  1  0.24479309  0.49457281  0.39492795  1
  O  O23  1  0.99434703  0.25504134  0.64474538  1
  O  O24  1  0.50565257  0.75505017  0.10527943  1
  O  O25  1  0.49434536  0.24494225  0.60527460  1
  O  O26  1  0.75518802  0.50547401  0.89490909  1
  O  O27  1  0.00562611  0.74494913  0.14469022  1
