# generated using pymatgen
data_LaCoO3
_symmetry_space_group_name_H-M   'P 1'
_cell_length_a   5.37951609
_cell_length_b   5.37845795
_cell_length_c   5.45666375
_cell_angle_alpha   60.09469467
_cell_angle_beta   60.28142536
_cell_angle_gamma   61.54033686
_symmetry_Int_Tables_number   1
_chemical_formula_structural   LaCoO3
_chemical_formula_sum   'La2 Co2 O6'
_cell_volume   113.20636656
_cell_formula_units_Z   2
loop_
 _symmetry_equiv_pos_site_id
 _symmetry_equiv_pos_as_xyz
  1  'x, y, z'
loop_
 _atom_site_type_symbol
 _atom_site_label
 _atom_site_symmetry_multiplicity
 _atom_site_fract_x
 _atom_site_fract_y
 _atom_site_fract_z
 _atom_site_occupancy
  La  La0  1  0.74770769  0.75315827  0.25039457  1
  La  La1  1  0.25229004  0.24683845  0.74959791  1
  Co  Co2  1  0.50000627  0.49998415  0.00001616  1
  Co  Co3  1  0.99997459  0.99998763  0.50001341  1
  O  O4  1  0.26590530  0.69603998  0.31725259  1
  O  O5  1  0.73407055  0.30398267  0.68272635  1
  O  O6  1  0.81743776  0.21955570  0.19474876  1
  O  O7  1  0.18255752  0.78042423  0.80528837  1
  O  O8  1  0.70887463  0.78864888  0.75102112  1
  O  O9  1  0.29117666  0.21138105  0.24893977  1
