# generated using pymatgen
data_SiO2
_symmetry_space_group_name_H-M   'P 1'
_cell_length_a   5.44084594
_cell_length_b   5.44084502
_cell_length_c   5.46294485
_cell_angle_alpha   97.10367451
_cell_angle_beta   97.10367937
_cell_angle_gamma   100.65170540
_symmetry_Int_Tables_number   1
_chemical_formula_structural   SiO2
_chemical_formula_sum   'Si4 O8'
_cell_volume   155.92168820
_cell_formula_units_Z   4
loop_
 _symmetry_equiv_pos_site_id
 _symmetry_equiv_pos_as_xyz
  1  'x, y, z'
loop_
 _atom_site_type_symbol
 _atom_site_label
 _atom_site_symmetry_multiplicity
 _atom_site_fract_x
 _atom_site_fract_y
 _atom_site_fract_z
 _atom_site_occupancy
  Si  Si0  1  0.28431221  0.28318250  0.71101308  1
  Si  Si1  1  0.14358425  0.39422511  0.20769661  1
  Si  Si2  1  0.71681750  0.71568779  0.28898692  1
  Si  Si3  1  0.60577489  0.85641575  0.79230339  1
  O  O4  1  0.74161300  0.90437984  0.08075254  1
  O  O5  1  0.42161051  0.57677540  0.24962295  1
  O  O6  1  0.91142904  0.53248049  0.24277639  1
  O  O7  1  0.46751951  0.08857096  0.75722361  1
  O  O8  1  0.78836894  0.84765463  0.57853650  1
  O  O9  1  0.42322460  0.57838949  0.75037705  1
  O  O10  1  0.09562016  0.25838700  0.91924746  1
  O  O11  1  0.15234537  0.21163106  0.42146350  1
