# generated using pymatgen
data_YAgSn
_symmetry_space_group_name_H-M   'P 1'
_cell_length_a   4.70762090
_cell_length_b   4.70762143
_cell_length_c   7.44648251
_cell_angle_alpha   90.00000000
_cell_angle_beta   90.00000000
_cell_angle_gamma   119.99999629
_symmetry_Int_Tables_number   1
_chemical_formula_structural   YAgSn
_chemical_formula_sum   'Y2 Ag2 Sn2'
_cell_volume   142.91731054
_cell_formula_units_Z   2
loop_
 _symmetry_equiv_pos_site_id
 _symmetry_equiv_pos_as_xyz
  1  'x, y, z'
loop_
 _atom_site_type_symbol
 _atom_site_label
 _atom_site_symmetry_multiplicity
 _atom_site_fract_x
 _atom_site_fract_y
 _atom_site_fract_z
 _atom_site_occupancy
  Y  Y0  1  0.00000000  -0.00000000  0.99855417  1
  Y  Y1  1  -0.00000000  -0.00000000  0.49855417  1
  Ag  Ag2  1  0.66666700  0.33333300  0.31274345  1
  Ag  Ag3  1  0.33333300  0.66666700  0.81274345  1
  Sn  Sn4  1  0.66666700  0.33333300  0.71770338  1
  Sn  Sn5  1  0.33333300  0.66666700  0.21770338  1
