# generated using pymatgen
data_Dy2InGe2
_symmetry_space_group_name_H-M   'P 1'
_cell_length_a   7.38523350
_cell_length_b   7.38523350
_cell_length_c   4.15174321
_cell_angle_alpha   90.00000000
_cell_angle_beta   90.00000000
_cell_angle_gamma   90.00000000
_symmetry_Int_Tables_number   1
_chemical_formula_structural   Dy2InGe2
_chemical_formula_sum   'Dy4 In2 Ge4'
_cell_volume   226.44302407
_cell_formula_units_Z   2
loop_
 _symmetry_equiv_pos_site_id
 _symmetry_equiv_pos_as_xyz
  1  'x, y, z'
loop_
 _atom_site_type_symbol
 _atom_site_label
 _atom_site_symmetry_multiplicity
 _atom_site_fract_x
 _atom_site_fract_y
 _atom_site_fract_z
 _atom_site_occupancy
  Dy  Dy0  1  0.17922341  0.32077659  0.50000000  1
  Dy  Dy1  1  0.82077659  0.67922341  0.50000000  1
  Dy  Dy2  1  0.32077659  0.82077659  0.50000000  1
  Dy  Dy3  1  0.67922341  0.17922341  0.50000000  1
  In  In4  1  0.00000000  -0.00000000  0.00000000  1
  In  In5  1  0.50000000  0.50000000  0.00000000  1
  Ge  Ge6  1  0.11976063  0.61976063  0.00000000  1
  Ge  Ge7  1  0.88023937  0.38023937  -0.00000000  1
  Ge  Ge8  1  0.38023937  0.11976063  -0.00000000  1
  Ge  Ge9  1  0.61976063  0.88023937  0.00000000  1
