# generated using pymatgen
data_K2MnO4
_symmetry_space_group_name_H-M   'P 1'
_cell_length_a   5.81573651
_cell_length_b   7.61975418
_cell_length_c   10.29982091
_cell_angle_alpha   89.99824065
_cell_angle_beta   90.00208007
_cell_angle_gamma   90.00320097
_symmetry_Int_Tables_number   1
_chemical_formula_structural   K2MnO4
_chemical_formula_sum   'K8 Mn4 O16'
_cell_volume   456.43123370
_cell_formula_units_Z   4
loop_
 _symmetry_equiv_pos_site_id
 _symmetry_equiv_pos_as_xyz
  1  'x, y, z'
loop_
 _atom_site_type_symbol
 _atom_site_label
 _atom_site_symmetry_multiplicity
 _atom_site_fract_x
 _atom_site_fract_y
 _atom_site_fract_z
 _atom_site_occupancy
  K  K0  1  0.74999401  0.83823040  0.91384033  1
  K  K1  1  0.25008370  0.16172658  0.08600881  1
  K  K2  1  0.74995375  0.33821910  0.58614827  1
  K  K3  1  0.24988597  0.66179725  0.41394650  1
  K  K4  1  0.75001839  0.01273121  0.30376771  1
  K  K5  1  0.24998846  0.98733904  0.69625240  1
  K  K6  1  0.74984339  0.51268122  0.19624712  1
  K  K7  1  0.25010721  0.48724108  0.80376007  1
  Mn  Mn8  1  0.75001137  0.77089174  0.57964354  1
  Mn  Mn9  1  0.24994462  0.22911494  0.42039795  1
  Mn  Mn10  1  0.75006941  0.27089831  0.92036312  1
  Mn  Mn11  1  0.24999627  0.72910754  0.07958893  1
  O  O12  1  0.74999643  0.98599508  0.58083690  1
  O  O13  1  0.24986773  0.01401093  0.41922509  1
  O  O14  1  0.75006274  0.48600040  0.91922169  1
  O  O15  1  0.25000995  0.51401199  0.08072227  1
  O  O16  1  0.75003466  0.70042298  0.42812816  1
  O  O17  1  0.24999942  0.29959744  0.57191619  1
  O  O18  1  0.75006711  0.20042040  0.07188675  1
  O  O19  1  0.24999666  0.79960434  0.92807971  1
  O  O20  1  0.97866593  0.69296034  0.65370764  1
  O  O21  1  0.47869235  0.30685894  0.34630593  1
  O  O22  1  0.52133284  0.19309464  0.84626562  1
  O  O23  1  0.02129974  0.80696251  0.15363116  1
  O  O24  1  0.02127523  0.30706304  0.34635957  1
  O  O25  1  0.52123791  0.69312830  0.65371221  1
  O  O26  1  0.47873285  0.80687210  0.15367757  1
  O  O27  1  0.97883390  0.19302014  0.84635579  1
