# generated using pymatgen
data_Eu(Ni2B)6
_symmetry_space_group_name_H-M   'P 1'
_cell_length_a   5.99629975
_cell_length_b   5.99629975
_cell_length_c   5.99630031
_cell_angle_alpha   104.44088296
_cell_angle_beta   104.44088296
_cell_angle_gamma   104.44087596
_symmetry_Int_Tables_number   1
_chemical_formula_structural   Eu(Ni2B)6
_chemical_formula_sum   'Eu1 Ni12 B6'
_cell_volume   190.70715283
_cell_formula_units_Z   1
loop_
 _symmetry_equiv_pos_site_id
 _symmetry_equiv_pos_as_xyz
  1  'x, y, z'
loop_
 _atom_site_type_symbol
 _atom_site_label
 _atom_site_symmetry_multiplicity
 _atom_site_fract_x
 _atom_site_fract_y
 _atom_site_fract_z
 _atom_site_occupancy
  Eu  Eu0  1  0.00000000  0.00000000  0.00000000  1
  Ni  Ni1  1  0.81220126  0.54073120  0.54073120  1
  Ni  Ni2  1  0.50000000  0.86845593  0.13154407  1
  Ni  Ni3  1  0.13154407  0.50000000  0.86845593  1
  Ni  Ni4  1  0.13154407  0.86845593  0.50000000  1
  Ni  Ni5  1  0.86845593  0.50000000  0.13154407  1
  Ni  Ni6  1  0.54073120  0.54073120  0.81220126  1
  Ni  Ni7  1  0.50000000  0.13154407  0.86845593  1
  Ni  Ni8  1  0.45926880  0.45926880  0.18779874  1
  Ni  Ni9  1  0.86845593  0.13154407  0.50000000  1
  Ni  Ni10  1  0.18779874  0.45926880  0.45926880  1
  Ni  Ni11  1  0.45926880  0.18779874  0.45926880  1
  Ni  Ni12  1  0.54073120  0.81220126  0.54073120  1
  B  B13  1  0.23308998  0.66115238  0.23308998  1
  B  B14  1  0.76691002  0.76691002  0.33884762  1
  B  B15  1  0.33884762  0.76691002  0.76691002  1
  B  B16  1  0.66115238  0.23308998  0.23308998  1
  B  B17  1  0.23308998  0.23308998  0.66115238  1
  B  B18  1  0.76691002  0.33884762  0.76691002  1
