# generated using pymatgen
data_Eu3(AsS4)2
_symmetry_space_group_name_H-M   'P 1'
_cell_length_a   10.60117967
_cell_length_b   10.60098493
_cell_length_c   10.60088627
_cell_angle_alpha   51.44021290
_cell_angle_beta   51.43951828
_cell_angle_gamma   51.43779523
_symmetry_Int_Tables_number   1
_chemical_formula_structural   Eu3(AsS4)2
_chemical_formula_sum   'Eu6 As4 S16'
_cell_volume   672.60146779
_cell_formula_units_Z   2
loop_
 _symmetry_equiv_pos_site_id
 _symmetry_equiv_pos_as_xyz
  1  'x, y, z'
loop_
 _atom_site_type_symbol
 _atom_site_label
 _atom_site_symmetry_multiplicity
 _atom_site_fract_x
 _atom_site_fract_y
 _atom_site_fract_z
 _atom_site_occupancy
  Eu  Eu0  1  0.25002275  0.57073180  0.92926697  1
  Eu  Eu1  1  0.42930966  0.07069308  0.74998789  1
  Eu  Eu2  1  0.74999949  0.42933155  0.07066888  1
  Eu  Eu3  1  0.92934735  0.24997625  0.57067470  1
  Eu  Eu4  1  0.57070424  0.92929556  0.24999064  1
  Eu  Eu5  1  0.07072580  0.75001738  0.42927826  1
  As  As6  1  0.84027917  0.84044065  0.84038715  1
  As  As7  1  0.65974125  0.65951376  0.65962872  1
  As  As8  1  0.34044695  0.34032326  0.34039629  1
  As  As9  1  0.15949631  0.15972855  0.15961635  1
  S  S10  1  0.22307943  0.94514031  0.38762109  1
  S  S11  1  0.72319779  0.88756271  0.44509727  1
  S  S12  1  0.42032773  0.42044725  0.42041575  1
  S  S13  1  0.27695634  0.11228906  0.55494276  1
  S  S14  1  0.92040192  0.92030644  0.92045349  1
  S  S15  1  0.05486102  0.61239320  0.77688111  1
  S  S16  1  0.57955198  0.57965740  0.57961851  1
  S  S17  1  0.11241787  0.55491271  0.27684777  1
  S  S18  1  0.44514820  0.72304218  0.88764803  1
  S  S19  1  0.77685673  0.05493473  0.61231552  1
  S  S20  1  0.61226444  0.77695901  0.05494999  1
  S  S21  1  0.07963121  0.07953569  0.07963910  1
  S  S22  1  0.88778184  0.44498654  0.72309545  1
  S  S23  1  0.38754565  0.22321063  0.94510001  1
  S  S24  1  0.55493584  0.27682207  0.11235818  1
  S  S25  1  0.94497004  0.38775022  0.22312113  1
