# generated using pymatgen
data_SiO2
_symmetry_space_group_name_H-M   'P 1'
_cell_length_a   5.10144894
_cell_length_b   7.00252109
_cell_length_c   7.00252088
_cell_angle_alpha   74.90358070
_cell_angle_beta   68.63808355
_cell_angle_gamma   68.63807549
_symmetry_Int_Tables_number   1
_chemical_formula_structural   SiO2
_chemical_formula_sum   'Si4 O8'
_cell_volume   214.59327273
_cell_formula_units_Z   4
loop_
 _symmetry_equiv_pos_site_id
 _symmetry_equiv_pos_as_xyz
  1  'x, y, z'
loop_
 _atom_site_type_symbol
 _atom_site_label
 _atom_site_symmetry_multiplicity
 _atom_site_fract_x
 _atom_site_fract_y
 _atom_site_fract_z
 _atom_site_occupancy
  Si  Si0  1  0.59335485  0.25757914  0.55640237  1
  Si  Si1  1  0.40733636  0.74242086  0.44359763  1
  Si  Si2  1  0.90733636  0.94359763  0.24242086  1
  Si  Si3  1  0.09335485  0.05640237  0.75757914  1
  O  O4  1  0.77000366  0.15176124  0.72620157  1
  O  O5  1  0.06231258  0.00000000  -0.00000000  1
  O  O6  1  0.27000366  0.22620157  0.65176124  1
  O  O7  1  0.64796748  0.84823876  0.27379843  1
  O  O8  1  0.27444506  0.84803957  0.65196043  1
  O  O9  1  0.77444506  0.15196043  0.34803957  1
  O  O10  1  0.56231258  0.50000000  0.50000000  1
  O  O11  1  0.14796748  0.77379843  0.34823876  1
