# generated using pymatgen
data_CuBi2(SeO3)4
_symmetry_space_group_name_H-M   'P 1'
_cell_length_a   4.39287696
_cell_length_b   8.21496585
_cell_length_c   15.86826669
_cell_angle_alpha   90.01548812
_cell_angle_beta   90.00474815
_cell_angle_gamma   95.19689651
_symmetry_Int_Tables_number   1
_chemical_formula_structural   CuBi2(SeO3)4
_chemical_formula_sum   'Cu2 Bi4 Se8 O24'
_cell_volume   570.28945777
_cell_formula_units_Z   2
loop_
 _symmetry_equiv_pos_site_id
 _symmetry_equiv_pos_as_xyz
  1  'x, y, z'
loop_
 _atom_site_type_symbol
 _atom_site_label
 _atom_site_symmetry_multiplicity
 _atom_site_fract_x
 _atom_site_fract_y
 _atom_site_fract_z
 _atom_site_occupancy
  Cu  Cu0  1  -0.00000000  0.00000000  0.00000000  1
  Cu  Cu1  1  -0.00000000  0.50000000  0.50000000  1
  Bi  Bi2  1  0.50075602  0.54036018  0.27239394  1
  Bi  Bi3  1  0.49924398  0.45963982  0.72760606  1
  Bi  Bi4  1  0.49908450  0.95955906  0.77265767  1
  Bi  Bi5  1  0.50091550  0.04044094  0.22734233  1
  Se  Se6  1  0.44724491  0.25511467  0.42905292  1
  Se  Se7  1  0.02599187  0.37051259  0.12636156  1
  Se  Se8  1  0.55279932  0.24503031  0.92920616  1
  Se  Se9  1  0.44720068  0.75496969  0.07079384  1
  Se  Se10  1  0.97400813  0.62948741  0.87363844  1
  Se  Se11  1  0.97379653  0.12943248  0.62673777  1
  Se  Se12  1  0.55275509  0.74488533  0.57094708  1
  Se  Se13  1  0.02620347  0.87056752  0.37326223  1
  O  O14  1  0.53971119  0.76063093  0.17761283  1
  O  O15  1  0.41338685  0.88849120  0.35246043  1
  O  O16  1  0.95395580  0.97632075  0.28064472  1
  O  O17  1  0.58681540  0.61159733  0.85278390  1
  O  O18  1  0.06662796  0.82880400  0.85096569  1
  O  O19  1  0.58661315  0.11150880  0.64753857  1
  O  O20  1  0.79462896  0.28354469  0.47570393  1
  O  O21  1  0.66912071  0.55185417  0.57174569  1
  O  O22  1  0.06628333  0.32871573  0.64953523  1
  O  O23  1  0.79470811  0.78344780  0.02424743  1
  O  O24  1  0.53992342  0.26074473  0.32224232  1
  O  O25  1  0.93371667  0.67128427  0.35046477  1
  O  O26  1  0.95367099  0.47610771  0.21904034  1
  O  O27  1  0.66905907  0.05198504  0.92834305  1
  O  O28  1  0.41318460  0.38840267  0.14721610  1
  O  O29  1  0.04604420  0.02367925  0.71935528  1
  O  O30  1  0.46007658  0.73925527  0.67775768  1
  O  O31  1  0.46028881  0.23936907  0.82238717  1
  O  O32  1  0.20537104  0.71645531  0.52429607  1
  O  O33  1  0.33087929  0.44814583  0.42825431  1
  O  O34  1  0.93337204  0.17119600  0.14903431  1
  O  O35  1  0.33094093  0.94801496  0.07165695  1
  O  O36  1  0.04632901  0.52389229  0.78095966  1
  O  O37  1  0.20529189  0.21655220  0.97575257  1
