# generated using pymatgen
data_EuCo8P5
_symmetry_space_group_name_H-M   'P 1'
_cell_length_a   3.54004132
_cell_length_b   9.16918935
_cell_length_c   10.41566028
_cell_angle_alpha   90.00000000
_cell_angle_beta   90.00000000
_cell_angle_gamma   90.00000000
_symmetry_Int_Tables_number   1
_chemical_formula_structural   EuCo8P5
_chemical_formula_sum   'Eu2 Co16 P10'
_cell_volume   338.08513724
_cell_formula_units_Z   2
loop_
 _symmetry_equiv_pos_site_id
 _symmetry_equiv_pos_as_xyz
  1  'x, y, z'
loop_
 _atom_site_type_symbol
 _atom_site_label
 _atom_site_symmetry_multiplicity
 _atom_site_fract_x
 _atom_site_fract_y
 _atom_site_fract_z
 _atom_site_occupancy
  Eu  Eu0  1  0.50000000  0.17505504  0.50000000  1
  Eu  Eu1  1  -0.00000000  0.82494496  0.00000000  1
  Co  Co2  1  -0.00000000  0.51823776  0.16963666  1
  Co  Co3  1  0.00000000  0.45810728  0.50000000  1
  Co  Co4  1  0.50000000  0.88926797  0.25719562  1
  Co  Co5  1  0.50000000  0.48176224  0.33036334  1
  Co  Co6  1  0.50000000  0.84419414  0.50000000  1
  Co  Co7  1  0.50000000  0.30226588  0.14722193  1
  Co  Co8  1  0.50000000  0.54189272  0.00000000  1
  Co  Co9  1  0.00000000  0.69773412  0.64722193  1
  Co  Co10  1  -0.00000000  0.15580586  0.00000000  1
  Co  Co11  1  0.00000000  0.69773412  0.35277807  1
  Co  Co12  1  0.50000000  0.48176224  0.66963666  1
  Co  Co13  1  0.50000000  0.30226588  0.85277807  1
  Co  Co14  1  0.00000000  0.11073203  0.24280438  1
  Co  Co15  1  0.50000000  0.88926797  0.74280438  1
  Co  Co16  1  -0.00000000  0.51823776  0.83036334  1
  Co  Co17  1  0.00000000  0.11073203  0.75719562  1
  P  P18  1  -0.00000000  0.33758750  0.68740834  1
  P  P19  1  0.00000000  0.93607220  0.38137366  1
  P  P20  1  -0.00000000  0.38933769  0.00000000  1
  P  P21  1  0.50000000  0.66241250  0.18740834  1
  P  P22  1  0.50000000  0.06392780  0.11862634  1
  P  P23  1  0.50000000  0.66241250  0.81259166  1
  P  P24  1  -0.00000000  0.93607220  0.61862634  1
  P  P25  1  0.00000000  0.33758750  0.31259166  1
  P  P26  1  0.50000000  0.61066231  0.50000000  1
  P  P27  1  0.50000000  0.06392780  0.88137366  1
