# generated using pymatgen
data_DyZrSb
_symmetry_space_group_name_H-M   'P 1'
_cell_length_a   4.26801202
_cell_length_b   4.26801247
_cell_length_c   8.84037724
_cell_angle_alpha   103.96877308
_cell_angle_beta   103.96877885
_cell_angle_gamma   90.00001313
_symmetry_Int_Tables_number   1
_chemical_formula_structural   DyZrSb
_chemical_formula_sum   'Dy2 Zr2 Sb2'
_cell_volume   151.36143795
_cell_formula_units_Z   2
loop_
 _symmetry_equiv_pos_site_id
 _symmetry_equiv_pos_as_xyz
  1  'x, y, z'
loop_
 _atom_site_type_symbol
 _atom_site_label
 _atom_site_symmetry_multiplicity
 _atom_site_fract_x
 _atom_site_fract_y
 _atom_site_fract_z
 _atom_site_occupancy
  Dy  Dy0  1  0.67633564  0.67633564  0.35267127  1
  Dy  Dy1  1  0.32366436  0.32366436  0.64732873  1
  Zr  Zr2  1  0.00000000  0.50000000  0.00000000  1
  Zr  Zr3  1  0.50000000  0.00000000  0.00000000  1
  Sb  Sb4  1  0.13349452  0.13349452  0.26698803  1
  Sb  Sb5  1  0.86650548  0.86650548  0.73301197  1
