# generated using pymatgen
data_TmAu2
_symmetry_space_group_name_H-M   'P 1'
_cell_length_a   3.66929608
_cell_length_b   3.66929555
_cell_length_c   5.16772803
_cell_angle_alpha   110.77713582
_cell_angle_beta   110.77712476
_cell_angle_gamma   90.04318488
_symmetry_Int_Tables_number   1
_chemical_formula_structural   TmAu2
_chemical_formula_sum   'Tm1 Au2'
_cell_volume   60.18050728
_cell_formula_units_Z   1
loop_
 _symmetry_equiv_pos_site_id
 _symmetry_equiv_pos_as_xyz
  1  'x, y, z'
loop_
 _atom_site_type_symbol
 _atom_site_label
 _atom_site_symmetry_multiplicity
 _atom_site_fract_x
 _atom_site_fract_y
 _atom_site_fract_z
 _atom_site_occupancy
  Tm  Tm0  1  -0.00000000  0.00000000  -0.00000000  1
  Au  Au1  1  0.66473596  0.66473596  0.32925280  1
  Au  Au2  1  0.33526404  0.33526404  0.67074720  1
