# generated using pymatgen
data_BaAlBO3F2
_symmetry_space_group_name_H-M   'P 1'
_cell_length_a   4.88060763
_cell_length_b   4.88060875
_cell_length_c   9.38515641
_cell_angle_alpha   90.00000000
_cell_angle_beta   90.00000000
_cell_angle_gamma   119.99999237
_symmetry_Int_Tables_number   1
_chemical_formula_structural   BaAlBO3F2
_chemical_formula_sum   'Ba2 Al2 B2 O6 F4'
_cell_volume   193.60656014
_cell_formula_units_Z   2
loop_
 _symmetry_equiv_pos_site_id
 _symmetry_equiv_pos_as_xyz
  1  'x, y, z'
loop_
 _atom_site_type_symbol
 _atom_site_label
 _atom_site_symmetry_multiplicity
 _atom_site_fract_x
 _atom_site_fract_y
 _atom_site_fract_z
 _atom_site_occupancy
  Ba  Ba0  1  0.00000000  -0.00000000  0.75000278  1
  Ba  Ba1  1  0.00000000  0.00000000  0.24999722  1
  Al  Al2  1  0.66666700  0.33333300  0.00000000  1
  Al  Al3  1  0.33333300  0.66666700  0.50000000  1
  B  B4  1  0.33333300  0.66666700  0.00000000  1
  B  B5  1  0.66666700  0.33333300  0.50000000  1
  O  O6  1  0.38300666  0.05499991  0.50000000  1
  O  O7  1  0.32800291  0.94500124  0.00000000  1
  O  O8  1  0.67199326  0.61699334  0.50000000  1
  O  O9  1  0.61699733  0.67199709  0.00000000  1
  O  O10  1  0.05499876  0.38300267  0.00000000  1
  O  O11  1  0.94500009  0.32800674  0.50000000  1
  F  F12  1  0.66666700  0.33333300  0.80399394  1
  F  F13  1  0.33333300  0.66666700  0.69600480  1
  F  F14  1  0.33333300  0.66666700  0.30399520  1
  F  F15  1  0.66666700  0.33333300  0.19600706  1
