# generated using pymatgen
data_CaZn3Ni2
_symmetry_space_group_name_H-M   'P 1'
_cell_length_a   8.92711085
_cell_length_b   8.92656277
_cell_length_c   4.02635735
_cell_angle_alpha   90.00000000
_cell_angle_beta   90.00000000
_cell_angle_gamma   119.99796207
_symmetry_Int_Tables_number   1
_chemical_formula_structural   CaZn3Ni2
_chemical_formula_sum   'Ca3 Zn9 Ni6'
_cell_volume   277.87345253
_cell_formula_units_Z   3
loop_
 _symmetry_equiv_pos_site_id
 _symmetry_equiv_pos_as_xyz
  1  'x, y, z'
loop_
 _atom_site_type_symbol
 _atom_site_label
 _atom_site_symmetry_multiplicity
 _atom_site_fract_x
 _atom_site_fract_y
 _atom_site_fract_z
 _atom_site_occupancy
  Ca  Ca0  1  -0.00000000  -0.00000000  0.50000000  1
  Ca  Ca1  1  0.33335016  0.66667508  -0.00000000  1
  Ca  Ca2  1  0.66664984  0.33332492  -0.00000000  1
  Zn  Zn3  1  0.50000000  -0.00000000  0.50000000  1
  Zn  Zn4  1  0.50000000  0.50000000  0.50000000  1
  Zn  Zn5  1  -0.00000000  0.50000000  0.50000000  1
  Zn  Zn6  1  0.29197136  0.00002654  0.00000000  1
  Zn  Zn7  1  0.29197136  0.29194482  0.00000000  1
  Zn  Zn8  1  0.00000000  0.70807506  -0.00000000  1
  Zn  Zn9  1  -0.00000000  0.29192494  0.00000000  1
  Zn  Zn10  1  0.70802864  0.70805518  -0.00000000  1
  Zn  Zn11  1  0.70802864  0.99997346  -0.00000000  1
  Ni  Ni12  1  0.18164200  0.36320315  0.50000000  1
  Ni  Ni13  1  0.81835800  0.18156015  0.50000000  1
  Ni  Ni14  1  0.36323035  0.18161468  0.50000000  1
  Ni  Ni15  1  0.63676965  0.81838532  0.50000000  1
  Ni  Ni16  1  0.18164200  0.81843985  0.50000000  1
  Ni  Ni17  1  0.81835800  0.63679685  0.50000000  1
