# generated using pymatgen
data_Ho(CoSi)2
_symmetry_space_group_name_H-M   'P 1'
_cell_length_a   3.84088020
_cell_length_b   3.84088032
_cell_length_c   5.54443981
_cell_angle_alpha   110.26557338
_cell_angle_beta   110.26556583
_cell_angle_gamma   90.00000638
_symmetry_Int_Tables_number   1
_chemical_formula_structural   Ho(CoSi)2
_chemical_formula_sum   'Ho1 Co2 Si2'
_cell_volume   71.30846839
_cell_formula_units_Z   1
loop_
 _symmetry_equiv_pos_site_id
 _symmetry_equiv_pos_as_xyz
  1  'x, y, z'
loop_
 _atom_site_type_symbol
 _atom_site_label
 _atom_site_symmetry_multiplicity
 _atom_site_fract_x
 _atom_site_fract_y
 _atom_site_fract_z
 _atom_site_occupancy
  Ho  Ho0  1  0.00000000  -0.00000000  0.00000000  1
  Co  Co1  1  0.25000000  0.75000000  0.50000000  1
  Co  Co2  1  0.75000000  0.25000000  0.50000000  1
  Si  Si3  1  0.62855483  0.62855483  0.25710966  1
  Si  Si4  1  0.37144517  0.37144517  0.74289034  1
