# generated using pymatgen
data_AgSbO3
_symmetry_space_group_name_H-M   'P 1'
_cell_length_a   6.36589347
_cell_length_b   6.36589297
_cell_length_c   6.36589376
_cell_angle_alpha   49.61821341
_cell_angle_beta   49.61826084
_cell_angle_gamma   49.61834321
_symmetry_Int_Tables_number   1
_chemical_formula_structural   AgSbO3
_chemical_formula_sum   'Ag2 Sb2 O6'
_cell_volume   137.63698539
_cell_formula_units_Z   2
loop_
 _symmetry_equiv_pos_site_id
 _symmetry_equiv_pos_as_xyz
  1  'x, y, z'
loop_
 _atom_site_type_symbol
 _atom_site_label
 _atom_site_symmetry_multiplicity
 _atom_site_fract_x
 _atom_site_fract_y
 _atom_site_fract_z
 _atom_site_occupancy
  Ag  Ag0  1  0.36122630  0.36122530  0.36122530  1
  Ag  Ag1  1  0.63877370  0.63877470  0.63877470  1
  Sb  Sb2  1  0.16285923  0.16285823  0.16285923  1
  Sb  Sb3  1  0.83714077  0.83714077  0.83714077  1
  O  O4  1  0.81495104  0.43982818  0.04416587  1
  O  O5  1  0.56017182  0.95583313  0.18504996  1
  O  O6  1  0.95583313  0.18504996  0.56017082  1
  O  O7  1  0.04416687  0.81495104  0.43982818  1
  O  O8  1  0.43982918  0.04416687  0.81495004  1
  O  O9  1  0.18504896  0.56017082  0.95583413  1
