# generated using pymatgen
data_MnCuO2
_symmetry_space_group_name_H-M   'P 1'
_cell_length_a   2.89276632
_cell_length_b   3.14051879
_cell_length_c   5.87455923
_cell_angle_alpha   102.37388228
_cell_angle_beta   90.00000000
_cell_angle_gamma   117.42298914
_symmetry_Int_Tables_number   1
_chemical_formula_structural   MnCuO2
_chemical_formula_sum   'Mn1 Cu1 O2'
_cell_volume   45.97085781
_cell_formula_units_Z   1
loop_
 _symmetry_equiv_pos_site_id
 _symmetry_equiv_pos_as_xyz
  1  'x, y, z'
loop_
 _atom_site_type_symbol
 _atom_site_label
 _atom_site_symmetry_multiplicity
 _atom_site_fract_x
 _atom_site_fract_y
 _atom_site_fract_z
 _atom_site_occupancy
  Mn  Mn0  1  -0.00000000  -0.00000000  -0.00000000  1
  Cu  Cu1  1  0.50000100  0.00000100  0.50000100  1
  O  O2  1  0.59503972  0.19007843  0.82002781  1
  O  O3  1  0.40496028  0.80991957  0.17997119  1
