# generated using pymatgen
data_Ba2CuWO6
_symmetry_space_group_name_H-M   'P 1'
_cell_length_a   5.62792000
_cell_length_b   5.98144706
_cell_length_c   5.62792000
_cell_angle_alpha   61.93661676
_cell_angle_beta   90.00000000
_cell_angle_gamma   118.06338324
_symmetry_Int_Tables_number   1
_chemical_formula_structural   Ba2CuWO6
_chemical_formula_sum   'Ba2 Cu1 W1 O6'
_cell_volume   141.43892257
_cell_formula_units_Z   1
loop_
 _symmetry_equiv_pos_site_id
 _symmetry_equiv_pos_as_xyz
  1  'x, y, z'
loop_
 _atom_site_type_symbol
 _atom_site_label
 _atom_site_symmetry_multiplicity
 _atom_site_fract_x
 _atom_site_fract_y
 _atom_site_fract_z
 _atom_site_occupancy
  Ba  Ba0  1  0.75000000  0.50000000  0.75000000  1
  Ba  Ba1  1  0.25000000  0.50000000  0.25000000  1
  Cu  Cu2  1  0.00000000  0.00000000  0.00000000  1
  W  W3  1  0.50000000  0.00000000  0.50000000  1
  O  O4  1  0.74690600  0.00000000  0.25309400  1
  O  O5  1  0.25309400  0.00000100  0.25309300  1
  O  O6  1  0.71820900  0.43641800  0.28179100  1
  O  O7  1  0.25309400  0.00000000  0.74690600  1
  O  O8  1  0.28179100  0.56358200  0.71820900  1
  O  O9  1  0.74690600  0.99999900  0.74690700  1
