# generated using pymatgen
data_Cs2PuCl6
_symmetry_space_group_name_H-M   'P 1'
_cell_length_a   7.52225386
_cell_length_b   7.52227269
_cell_length_c   6.04072939
_cell_angle_alpha   90.00000127
_cell_angle_beta   90.00003375
_cell_angle_gamma   120.00008115
_symmetry_Int_Tables_number   1
_chemical_formula_structural   Cs2PuCl6
_chemical_formula_sum   'Cs2 Pu1 Cl6'
_cell_volume   296.01704327
_cell_formula_units_Z   1
loop_
 _symmetry_equiv_pos_site_id
 _symmetry_equiv_pos_as_xyz
  1  'x, y, z'
loop_
 _atom_site_type_symbol
 _atom_site_label
 _atom_site_symmetry_multiplicity
 _atom_site_fract_x
 _atom_site_fract_y
 _atom_site_fract_z
 _atom_site_occupancy
  Cs  Cs0  1  0.66666700  0.33333300  0.26246223  1
  Cs  Cs1  1  0.33333300  0.66666700  0.73753777  1
  Pu  Pu2  1  -0.00000000  -0.00000000  0.00000000  1
  Cl  Cl3  1  0.83297374  0.16702526  0.76547286  1
  Cl  Cl4  1  0.66594648  0.83297374  0.23452814  1
  Cl  Cl5  1  0.33405352  0.16702626  0.76547186  1
  Cl  Cl6  1  0.16702626  0.33405352  0.23452714  1
  Cl  Cl7  1  0.16702626  0.83297474  0.23452714  1
  Cl  Cl8  1  0.83297374  0.66594648  0.76547286  1
