# generated using pymatgen
data_Cd2SnO4
_symmetry_space_group_name_H-M   'P 1'
_cell_length_a   3.20739624
_cell_length_b   5.60443625
_cell_length_c   9.97554715
_cell_angle_alpha   90.00000000
_cell_angle_beta   90.00000000
_cell_angle_gamma   90.00000000
_symmetry_Int_Tables_number   1
_chemical_formula_structural   Cd2SnO4
_chemical_formula_sum   'Cd4 Sn2 O8'
_cell_volume   179.31692174
_cell_formula_units_Z   2
loop_
 _symmetry_equiv_pos_site_id
 _symmetry_equiv_pos_as_xyz
  1  'x, y, z'
loop_
 _atom_site_type_symbol
 _atom_site_label
 _atom_site_symmetry_multiplicity
 _atom_site_fract_x
 _atom_site_fract_y
 _atom_site_fract_z
 _atom_site_occupancy
  Cd  Cd0  1  0.50000000  0.06014452  0.32349055  1
  Cd  Cd1  1  0.50000000  0.93985548  0.67650945  1
  Cd  Cd2  1  0.50000000  0.43985548  0.82349055  1
  Cd  Cd3  1  0.50000000  0.56014452  0.17650945  1
  Sn  Sn4  1  0.00000000  -0.00000000  -0.00000000  1
  Sn  Sn5  1  0.00000000  0.50000000  0.50000000  1
  O  O6  1  0.00000000  0.13425463  0.80809320  1
  O  O7  1  0.00000000  0.86574537  0.19190680  1
  O  O8  1  0.00000000  0.63425463  0.69190680  1
  O  O9  1  0.00000000  0.36574537  0.30809320  1
  O  O10  1  0.50000000  0.26549084  0.53980052  1
  O  O11  1  0.50000000  0.73450916  0.46019948  1
  O  O12  1  0.50000000  0.23450916  0.03980052  1
  O  O13  1  0.50000000  0.76549084  0.96019948  1
