# generated using pymatgen
data_Tm6CoBi2
_symmetry_space_group_name_H-M   'P 1'
_cell_length_a   8.20542708
_cell_length_b   8.20542071
_cell_length_c   4.08603941
_cell_angle_alpha   90.00000000
_cell_angle_beta   90.00000000
_cell_angle_gamma   120.00156905
_symmetry_Int_Tables_number   1
_chemical_formula_structural   Tm6CoBi2
_chemical_formula_sum   'Tm6 Co1 Bi2'
_cell_volume   238.24750390
_cell_formula_units_Z   1
loop_
 _symmetry_equiv_pos_site_id
 _symmetry_equiv_pos_as_xyz
  1  'x, y, z'
loop_
 _atom_site_type_symbol
 _atom_site_label
 _atom_site_symmetry_multiplicity
 _atom_site_fract_x
 _atom_site_fract_y
 _atom_site_fract_z
 _atom_site_occupancy
  Tm  Tm0  1  -0.00000176  0.60979267  0.50000000  1
  Tm  Tm1  1  0.23354221  0.00000523  -0.00000000  1
  Tm  Tm2  1  0.39020112  0.39020119  0.50000000  1
  Tm  Tm3  1  0.00000046  0.23354064  -0.00000000  1
  Tm  Tm4  1  0.76645502  0.76645960  -0.00000000  1
  Tm  Tm5  1  0.60979056  -0.00000160  0.50000000  1
  Co  Co6  1  0.00001329  0.00000948  0.50000000  1
  Bi  Bi7  1  0.66666816  0.33333224  -0.00000000  1
  Bi  Bi8  1  0.33333193  0.66666056  -0.00000000  1
