# generated using pymatgen
data_NdGe2Ir
_symmetry_space_group_name_H-M   'P 1'
_cell_length_a   9.51969973
_cell_length_b   9.51969973
_cell_length_c   9.51969973
_cell_angle_alpha   153.44175950
_cell_angle_beta   123.91268100
_cell_angle_gamma   63.10164260
_symmetry_Int_Tables_number   1
_chemical_formula_structural   NdGe2Ir
_chemical_formula_sum   'Nd4 Ge8 Ir4'
_cell_volume   317.57187253
_cell_formula_units_Z   4
loop_
 _symmetry_equiv_pos_site_id
 _symmetry_equiv_pos_as_xyz
  1  'x, y, z'
loop_
 _atom_site_type_symbol
 _atom_site_label
 _atom_site_symmetry_multiplicity
 _atom_site_fract_x
 _atom_site_fract_y
 _atom_site_fract_z
 _atom_site_occupancy
  Nd  Nd0  1  0.70671293  0.20671293  0.50000000  1
  Nd  Nd1  1  0.29328707  0.79328707  0.50000000  1
  Nd  Nd2  1  0.74008703  0.00000000  0.74008703  1
  Nd  Nd3  1  0.25991297  -0.00000000  0.25991297  1
  Ge  Ge4  1  0.42267335  0.42267335  0.00000000  1
  Ge  Ge5  1  0.57732665  0.57732665  -0.00000000  1
  Ge  Ge6  1  0.92185694  0.42185694  0.50000000  1
  Ge  Ge7  1  0.07814306  0.57814306  0.50000000  1
  Ge  Ge8  1  0.04421892  0.19929504  0.84492488  1
  Ge  Ge9  1  0.95578108  0.80070496  0.15507512  1
  Ge  Ge10  1  0.64562985  0.80070496  0.84492488  1
  Ge  Ge11  1  0.35437015  0.19929504  0.15507512  1
  Ir  Ir12  1  0.10046024  0.35360026  0.74685898  1
  Ir  Ir13  1  0.89953976  0.64639974  0.25314102  1
  Ir  Ir14  1  0.39325772  0.64639974  0.74685898  1
  Ir  Ir15  1  0.60674228  0.35360026  0.25314102  1
