# generated using pymatgen
data_BaB4O7
_symmetry_space_group_name_H-M   'P 1'
_cell_length_a   4.30169004
_cell_length_b   9.01139862
_cell_length_c   11.00351696
_cell_angle_alpha   90.00000000
_cell_angle_beta   90.00000000
_cell_angle_gamma   90.00000000
_symmetry_Int_Tables_number   1
_chemical_formula_structural   BaB4O7
_chemical_formula_sum   'Ba4 B16 O28'
_cell_volume   426.54301289
_cell_formula_units_Z   4
loop_
 _symmetry_equiv_pos_site_id
 _symmetry_equiv_pos_as_xyz
  1  'x, y, z'
loop_
 _atom_site_type_symbol
 _atom_site_label
 _atom_site_symmetry_multiplicity
 _atom_site_fract_x
 _atom_site_fract_y
 _atom_site_fract_z
 _atom_site_occupancy
  Ba  Ba0  1  0.73012636  0.85327688  0.75000000  1
  Ba  Ba1  1  0.26987364  0.14672312  0.25000000  1
  Ba  Ba2  1  0.23012636  0.64672312  0.25000000  1
  Ba  Ba3  1  0.76987364  0.35327688  0.75000000  1
  B  B4  1  0.70725325  0.91061418  0.12632472  1
  B  B5  1  0.29274675  0.08938582  0.87367528  1
  B  B6  1  0.77836431  0.15788500  0.49961850  1
  B  B7  1  0.22163569  0.84211500  0.99961850  1
  B  B8  1  0.77836431  0.15788500  0.00038150  1
  B  B9  1  0.79274675  0.41061418  0.37367528  1
  B  B10  1  0.70725325  0.91061418  0.37367528  1
  B  B11  1  0.20725325  0.58938582  0.62632472  1
  B  B12  1  0.72163569  0.65788500  0.00038150  1
  B  B13  1  0.27836431  0.34211500  0.50038150  1
  B  B14  1  0.79274675  0.41061418  0.12632472  1
  B  B15  1  0.27836431  0.34211500  0.99961850  1
  B  B16  1  0.72163569  0.65788500  0.49961850  1
  B  B17  1  0.20725325  0.58938582  0.87367528  1
  B  B18  1  0.22163569  0.84211500  0.50038150  1
  B  B19  1  0.29274675  0.08938582  0.62632472  1
  O  O20  1  0.37868478  0.69589078  0.53838403  1
  O  O21  1  0.29627568  0.43678803  0.89612226  1
  O  O22  1  0.79627568  0.06321197  0.39612226  1
  O  O23  1  0.70372432  0.56321197  0.10387774  1
  O  O24  1  0.37602105  0.89066543  0.39427962  1
  O  O25  1  0.62397895  0.10933457  0.89427962  1
  O  O26  1  0.12131522  0.19589078  0.96161597  1
  O  O27  1  0.87602105  0.60933457  0.60572038  1
  O  O28  1  0.37602105  0.89066543  0.10572038  1
  O  O29  1  0.70372432  0.56321197  0.39612226  1
  O  O30  1  0.20372432  0.93678803  0.89612226  1
  O  O31  1  0.78696095  0.86740896  0.25000000  1
  O  O32  1  0.28696095  0.63259104  0.75000000  1
  O  O33  1  0.20372432  0.93678803  0.60387774  1
  O  O34  1  0.29627568  0.43678803  0.60387774  1
  O  O35  1  0.12397895  0.39066543  0.39427962  1
  O  O36  1  0.62131522  0.30410922  0.03838403  1
  O  O37  1  0.12131522  0.19589078  0.53838403  1
  O  O38  1  0.62397895  0.10933457  0.60572038  1
  O  O39  1  0.62131522  0.30410922  0.46161597  1
  O  O40  1  0.87602105  0.60933457  0.89427962  1
  O  O41  1  0.21303905  0.13259104  0.75000000  1
  O  O42  1  0.71303905  0.36740896  0.25000000  1
  O  O43  1  0.87868478  0.80410922  0.03838403  1
  O  O44  1  0.87868478  0.80410922  0.46161597  1
  O  O45  1  0.79627568  0.06321197  0.10387774  1
  O  O46  1  0.12397895  0.39066543  0.10572038  1
  O  O47  1  0.37868478  0.69589078  0.96161597  1
