# generated using pymatgen
data_CsTi2Cl7
_symmetry_space_group_name_H-M   'P 1'
_cell_length_a   11.37020296
_cell_length_b   6.49132674
_cell_length_c   7.37823144
_cell_angle_alpha   87.11342093
_cell_angle_beta   90.00000000
_cell_angle_gamma   90.00000000
_symmetry_Int_Tables_number   1
_chemical_formula_structural   CsTi2Cl7
_chemical_formula_sum   'Cs2 Ti4 Cl14'
_cell_volume   543.87934996
_cell_formula_units_Z   2
loop_
 _symmetry_equiv_pos_site_id
 _symmetry_equiv_pos_as_xyz
  1  'x, y, z'
loop_
 _atom_site_type_symbol
 _atom_site_label
 _atom_site_symmetry_multiplicity
 _atom_site_fract_x
 _atom_site_fract_y
 _atom_site_fract_z
 _atom_site_occupancy
  Cs  Cs0  1  0.75000000  0.06516419  0.62859923  1
  Cs  Cs1  1  0.25000000  0.93483581  0.37140077  1
  Ti  Ti2  1  0.88541584  0.41509441  0.12820550  1
  Ti  Ti3  1  0.38541584  0.58490559  0.87179450  1
  Ti  Ti4  1  0.11458416  0.58490559  0.87179450  1
  Ti  Ti5  1  0.61458416  0.41509441  0.12820550  1
  Cl  Cl6  1  0.75000000  0.55909498  0.89252512  1
  Cl  Cl7  1  0.25000000  0.44090502  0.10747488  1
  Cl  Cl8  1  0.75000000  0.55570098  0.34992012  1
  Cl  Cl9  1  0.25000000  0.44429902  0.65007988  1
  Cl  Cl10  1  0.75000000  0.11744389  0.13045896  1
  Cl  Cl11  1  0.25000000  0.88255611  0.86954104  1
  Cl  Cl12  1  0.00262132  0.26763694  0.89002434  1
  Cl  Cl13  1  0.50262132  0.73236306  0.10997566  1
  Cl  Cl14  1  0.99737868  0.73236306  0.10997566  1
  Cl  Cl15  1  0.49737868  0.26763694  0.89002434  1
  Cl  Cl16  1  -0.00289050  0.25925965  0.35551961  1
  Cl  Cl17  1  0.49710950  0.74074035  0.64448039  1
  Cl  Cl18  1  0.00289050  0.74074035  0.64448039  1
  Cl  Cl19  1  0.50289050  0.25925965  0.35551961  1
