# generated using pymatgen
data_NiSnF6
_symmetry_space_group_name_H-M   'P 1'
_cell_length_a   5.47082111
_cell_length_b   5.47081772
_cell_length_c   5.47082164
_cell_angle_alpha   55.08190512
_cell_angle_beta   55.08192430
_cell_angle_gamma   55.08195577
_symmetry_Int_Tables_number   1
_chemical_formula_structural   NiSnF6
_chemical_formula_sum   'Ni1 Sn1 F6'
_cell_volume   102.53797344
_cell_formula_units_Z   1
loop_
 _symmetry_equiv_pos_site_id
 _symmetry_equiv_pos_as_xyz
  1  'x, y, z'
loop_
 _atom_site_type_symbol
 _atom_site_label
 _atom_site_symmetry_multiplicity
 _atom_site_fract_x
 _atom_site_fract_y
 _atom_site_fract_z
 _atom_site_occupancy
  Ni  Ni0  1  0.50000000  0.50000000  0.50000000  1
  Sn  Sn1  1  -0.00000000  0.00000000  -0.00000000  1
  F  F2  1  0.25054158  0.88746245  0.61390914  1
  F  F3  1  0.88746245  0.61390914  0.25053958  1
  F  F4  1  0.38609186  0.74945742  0.11253855  1
  F  F5  1  0.11253755  0.38609086  0.74946042  1
  F  F6  1  0.74945842  0.11253755  0.38609086  1
  F  F7  1  0.61390814  0.25054258  0.88746145  1
