# generated using pymatgen
data_TbInNi
_symmetry_space_group_name_H-M   'P 1'
_cell_length_a   7.42324500
_cell_length_b   7.42324717
_cell_length_c   3.77371462
_cell_angle_alpha   90.00000000
_cell_angle_beta   90.00000000
_cell_angle_gamma   119.99999952
_symmetry_Int_Tables_number   1
_chemical_formula_structural   TbInNi
_chemical_formula_sum   'Tb3 In3 Ni3'
_cell_volume   180.08909007
_cell_formula_units_Z   3
loop_
 _symmetry_equiv_pos_site_id
 _symmetry_equiv_pos_as_xyz
  1  'x, y, z'
loop_
 _atom_site_type_symbol
 _atom_site_label
 _atom_site_symmetry_multiplicity
 _atom_site_fract_x
 _atom_site_fract_y
 _atom_site_fract_z
 _atom_site_occupancy
  Tb  Tb0  1  0.00000000  0.58741297  0.50000000  1
  Tb  Tb1  1  0.58741297  1.00000000  0.50000000  1
  Tb  Tb2  1  0.41258703  0.41258703  0.50000000  1
  In  In3  1  0.74706782  0.74706782  0.00000000  1
  In  In4  1  1.00000000  0.25293218  0.00000000  1
  In  In5  1  0.25293218  0.00000000  -0.00000000  1
  Ni  Ni6  1  -0.00000000  0.00000000  0.50000000  1
  Ni  Ni7  1  0.66666700  0.33333300  -0.00000000  1
  Ni  Ni8  1  0.33333300  0.66666700  -0.00000000  1
