# generated using pymatgen
data_CaH12CO9
_symmetry_space_group_name_H-M   'P 1'
_cell_length_a   5.96592776
_cell_length_b   5.96592776
_cell_length_c   10.80074306
_cell_angle_alpha   75.83120257
_cell_angle_beta   75.83120257
_cell_angle_gamma   87.22544516
_symmetry_Int_Tables_number   1
_chemical_formula_structural   CaH12CO9
_chemical_formula_sum   'Ca2 H24 C2 O18'
_cell_volume   361.36266154
_cell_formula_units_Z   2
loop_
 _symmetry_equiv_pos_site_id
 _symmetry_equiv_pos_as_xyz
  1  'x, y, z'
loop_
 _atom_site_type_symbol
 _atom_site_label
 _atom_site_symmetry_multiplicity
 _atom_site_fract_x
 _atom_site_fract_y
 _atom_site_fract_z
 _atom_site_occupancy
  Ca  Ca0  1  0.85528278  0.14471722  0.25000000  1
  Ca  Ca1  1  0.14471722  0.85528278  0.75000000  1
  H  H2  1  0.73356647  0.11392022  0.00045588  1
  H  H3  1  0.88607978  0.26643353  0.49954412  1
  H  H4  1  0.26643353  0.88607978  0.99954412  1
  H  H5  1  0.11392022  0.73356647  0.50045588  1
  H  H6  1  0.50445964  0.17724077  0.09507707  1
  H  H7  1  0.82275923  0.49554036  0.40492293  1
  H  H8  1  0.49554036  0.82275923  0.90492293  1
  H  H9  1  0.17724077  0.50445964  0.59507707  1
  H  H10  1  0.53256657  0.72503292  0.35020147  1
  H  H11  1  0.27496708  0.46743343  0.14979853  1
  H  H12  1  0.46743343  0.27496708  0.64979853  1
  H  H13  1  0.72503292  0.53256657  0.85020147  1
  H  H14  1  0.60075951  0.77853327  0.47434036  1
  H  H15  1  0.22146673  0.39924049  0.02565964  1
  H  H16  1  0.39924049  0.22146673  0.52565964  1
  H  H17  1  0.77853327  0.60075951  0.97434036  1
  H  H18  1  0.33724760  0.09554968  0.35729786  1
  H  H19  1  0.90445032  0.66275240  0.14270214  1
  H  H20  1  0.66275240  0.90445032  0.64270214  1
  H  H21  1  0.09554968  0.33724760  0.85729786  1
  H  H22  1  0.38447175  0.36171598  0.33289165  1
  H  H23  1  0.63828402  0.61552825  0.16710835  1
  H  H24  1  0.61552825  0.63828402  0.66710835  1
  H  H25  1  0.36171598  0.38447175  0.83289165  1
  C  C26  1  0.20125269  0.79874731  0.25000000  1
  C  C27  1  0.79874731  0.20125269  0.75000000  1
  O  O28  1  0.35789875  0.64210125  0.25000000  1
  O  O29  1  0.64210125  0.35789875  0.75000000  1
  O  O30  1  0.09311087  0.85130564  0.15685302  1
  O  O31  1  0.14869436  0.90688913  0.34314698  1
  O  O32  1  0.90688913  0.14869436  0.84314698  1
  O  O33  1  0.85130564  0.09311087  0.65685302  1
  O  O34  1  0.65205435  0.09641798  0.09349086  1
  O  O35  1  0.90358202  0.34794565  0.40650914  1
  O  O36  1  0.34794565  0.90358202  0.90650914  1
  O  O37  1  0.09641798  0.65205435  0.59349086  1
  O  O38  1  0.66217228  0.76260646  0.38312679  1
  O  O39  1  0.23739354  0.33782772  0.11687321  1
  O  O40  1  0.33782772  0.23739354  0.61687321  1
  O  O41  1  0.76260646  0.66217228  0.88312679  1
  O  O42  1  0.44709989  0.20849798  0.36425160  1
  O  O43  1  0.79150202  0.55290011  0.13574840  1
  O  O44  1  0.55290011  0.79150202  0.63574840  1
  O  O45  1  0.20849798  0.44709989  0.86425160  1
