# generated using pymatgen
data_Cs2V4O9
_symmetry_space_group_name_H-M   'P 1'
_cell_length_a   5.73156076
_cell_length_b   5.73155734
_cell_length_c   15.27215451
_cell_angle_alpha   89.99991226
_cell_angle_beta   89.99957346
_cell_angle_gamma   89.99996481
_symmetry_Int_Tables_number   1
_chemical_formula_structural   Cs2V4O9
_chemical_formula_sum   'Cs4 V8 O18'
_cell_volume   501.70202213
_cell_formula_units_Z   2
loop_
 _symmetry_equiv_pos_site_id
 _symmetry_equiv_pos_as_xyz
  1  'x, y, z'
loop_
 _atom_site_type_symbol
 _atom_site_label
 _atom_site_symmetry_multiplicity
 _atom_site_fract_x
 _atom_site_fract_y
 _atom_site_fract_z
 _atom_site_occupancy
  Cs  Cs0  1  0.73022577  0.74760607  0.49999880  1
  Cs  Cs1  1  0.74760600  0.26977554  0.00000192  1
  Cs  Cs2  1  0.26977279  0.25239477  0.49999857  1
  Cs  Cs3  1  0.25239535  0.73022636  0.00000159  1
  V  V4  1  0.28756748  0.14706512  0.79791976  1
  V  V5  1  0.14706407  0.71243000  0.70208309  1
  V  V6  1  0.71242648  0.85294158  0.79791055  1
  V  V7  1  0.28757241  0.14705714  0.20208839  1
  V  V8  1  0.14705724  0.71242934  0.29791282  1
  V  V9  1  0.85293788  0.28757001  0.29791903  1
  V  V10  1  0.85293916  0.28757138  0.70208696  1
  V  V11  1  0.71242755  0.85294076  0.20208586  1
  O  O12  1  0.76668992  0.77742322  0.89979276  1
  O  O13  1  0.77741487  0.23330756  0.60021176  1
  O  O14  1  0.22257595  0.76668566  0.60021186  1
  O  O15  1  0.18117848  0.37991068  0.28415123  1
  O  O16  1  0.62008449  0.18117321  0.21585107  1
  O  O17  1  0.77744374  0.23331687  0.39978049  1
  O  O18  1  0.81882189  0.62009093  0.71584542  1
  O  O19  1  0.23331107  0.22257624  0.89977882  1
  O  O20  1  0.37991031  0.81882092  0.21584800  1
  O  O21  1  0.23332508  0.22256747  0.10021571  1
  O  O22  1  0.37990570  0.81881983  0.78415709  1
  O  O23  1  0.18118266  0.37990875  0.71584431  1
  O  O24  1  0.00000170  0.00000204  0.75000040  1
  O  O25  1  0.62008846  0.18117678  0.78415490  1
  O  O26  1  0.76668513  0.77744102  0.10021647  1
  O  O27  1  0.81882364  0.62008631  0.28415030  1
  O  O28  1  0.22256431  0.76668146  0.39978526  1
  O  O29  1  -0.00000159  0.00000296  0.24999983  1
