# generated using pymatgen
data_Nd5Sn3
_symmetry_space_group_name_H-M   'P 1'
_cell_length_a   9.28872697
_cell_length_b   9.28872707
_cell_length_c   6.88000155
_cell_angle_alpha   90.00000000
_cell_angle_beta   90.00000000
_cell_angle_gamma   119.99999591
_symmetry_Int_Tables_number   1
_chemical_formula_structural   Nd5Sn3
_chemical_formula_sum   'Nd10 Sn6'
_cell_volume   514.08103852
_cell_formula_units_Z   2
loop_
 _symmetry_equiv_pos_site_id
 _symmetry_equiv_pos_as_xyz
  1  'x, y, z'
loop_
 _atom_site_type_symbol
 _atom_site_label
 _atom_site_symmetry_multiplicity
 _atom_site_fract_x
 _atom_site_fract_y
 _atom_site_fract_z
 _atom_site_occupancy
  Nd  Nd0  1  0.33333300  0.66666700  -0.00000000  1
  Nd  Nd1  1  0.66666700  0.33333300  0.50000000  1
  Nd  Nd2  1  0.66666700  0.33333300  -0.00000000  1
  Nd  Nd3  1  0.33333300  0.66666700  0.50000000  1
  Nd  Nd4  1  0.24113590  -0.00000000  0.25000000  1
  Nd  Nd5  1  0.24113590  0.24113590  0.75000000  1
  Nd  Nd6  1  0.00000000  0.75886410  0.75000000  1
  Nd  Nd7  1  -0.00000000  0.24113590  0.25000000  1
  Nd  Nd8  1  0.75886410  0.75886410  0.25000000  1
  Nd  Nd9  1  0.75886410  0.00000000  0.75000000  1
  Sn  Sn10  1  0.60603237  0.00000000  0.25000000  1
  Sn  Sn11  1  0.60603237  0.60603237  0.75000000  1
  Sn  Sn12  1  -0.00000000  0.39396763  0.75000000  1
  Sn  Sn13  1  0.00000000  0.60603237  0.25000000  1
  Sn  Sn14  1  0.39396763  0.39396763  0.25000000  1
  Sn  Sn15  1  0.39396763  -0.00000000  0.75000000  1
