# generated using pymatgen
data_GdAgSe2
_symmetry_space_group_name_H-M   'P 1'
_cell_length_a   7.36325092
_cell_length_b   7.36325092
_cell_length_c   7.36325092
_cell_angle_alpha   134.31692909
_cell_angle_beta   134.31692909
_cell_angle_gamma   66.59341041
_symmetry_Int_Tables_number   1
_chemical_formula_structural   GdAgSe2
_chemical_formula_sum   'Gd2 Ag2 Se4'
_cell_volume   201.12503728
_cell_formula_units_Z   2
loop_
 _symmetry_equiv_pos_site_id
 _symmetry_equiv_pos_as_xyz
  1  'x, y, z'
loop_
 _atom_site_type_symbol
 _atom_site_label
 _atom_site_symmetry_multiplicity
 _atom_site_fract_x
 _atom_site_fract_y
 _atom_site_fract_z
 _atom_site_occupancy
  Gd  Gd0  1  0.74671647  0.74671647  0.00000000  1
  Gd  Gd1  1  0.49671647  0.99671647  0.50000000  1
  Ag  Ag2  1  0.21686746  0.21686746  -0.00000000  1
  Ag  Ag3  1  0.96686746  0.46686746  0.50000000  1
  Se  Se4  1  0.51286847  0.51286847  -0.00000000  1
  Se  Se5  1  0.26286847  0.76286847  0.50000000  1
  Se  Se6  1  0.98354760  0.98354760  0.00000000  1
  Se  Se7  1  0.73354760  0.23354760  0.50000000  1
