# generated using pymatgen
data_ZrRu2
_symmetry_space_group_name_H-M   'P 1'
_cell_length_a   5.14560140
_cell_length_b   5.14560190
_cell_length_c   8.57672559
_cell_angle_alpha   90.00000000
_cell_angle_beta   90.00000000
_cell_angle_gamma   119.99999677
_symmetry_Int_Tables_number   1
_chemical_formula_structural   ZrRu2
_chemical_formula_sum   'Zr4 Ru8'
_cell_volume   196.66382657
_cell_formula_units_Z   4
loop_
 _symmetry_equiv_pos_site_id
 _symmetry_equiv_pos_as_xyz
  1  'x, y, z'
loop_
 _atom_site_type_symbol
 _atom_site_label
 _atom_site_symmetry_multiplicity
 _atom_site_fract_x
 _atom_site_fract_y
 _atom_site_fract_z
 _atom_site_occupancy
  Zr  Zr0  1  0.66666700  0.33333300  0.93237223  1
  Zr  Zr1  1  0.33333300  0.66666700  0.06762777  1
  Zr  Zr2  1  0.33333300  0.66666700  0.43237223  1
  Zr  Zr3  1  0.66666700  0.33333300  0.56762777  1
  Ru  Ru4  1  0.17187279  0.34374658  0.75000000  1
  Ru  Ru5  1  0.17187279  0.82812721  0.75000000  1
  Ru  Ru6  1  0.34374658  0.17187279  0.25000000  1
  Ru  Ru7  1  0.82812721  0.65625342  0.25000000  1
  Ru  Ru8  1  0.00000000  0.00000000  -0.00000000  1
  Ru  Ru9  1  0.65625342  0.82812721  0.75000000  1
  Ru  Ru10  1  0.82812721  0.17187279  0.25000000  1
  Ru  Ru11  1  0.00000000  0.00000000  0.50000000  1
