# generated using pymatgen
data_RbFeCl4
_symmetry_space_group_name_H-M   'P 1'
_cell_length_a   7.10178304
_cell_length_b   9.30130447
_cell_length_c   11.29838914
_cell_angle_alpha   90.00000000
_cell_angle_beta   90.00000000
_cell_angle_gamma   90.00000000
_symmetry_Int_Tables_number   1
_chemical_formula_structural   RbFeCl4
_chemical_formula_sum   'Rb4 Fe4 Cl16'
_cell_volume   746.32465686
_cell_formula_units_Z   4
loop_
 _symmetry_equiv_pos_site_id
 _symmetry_equiv_pos_as_xyz
  1  'x, y, z'
loop_
 _atom_site_type_symbol
 _atom_site_label
 _atom_site_symmetry_multiplicity
 _atom_site_fract_x
 _atom_site_fract_y
 _atom_site_fract_z
 _atom_site_occupancy
  Rb  Rb0  1  0.25000000  0.16533499  0.68012067  1
  Rb  Rb1  1  0.75000000  0.83466501  0.31987933  1
  Rb  Rb2  1  0.75000000  0.66533499  0.81987933  1
  Rb  Rb3  1  0.25000000  0.33466501  0.18012067  1
  Fe  Fe4  1  0.25000000  0.68764728  0.56748506  1
  Fe  Fe5  1  0.75000000  0.31235272  0.43251494  1
  Fe  Fe6  1  0.75000000  0.18764728  0.93251494  1
  Fe  Fe7  1  0.25000000  0.81235272  0.06748506  1
  Cl  Cl8  1  0.25000000  0.54162130  0.71939387  1
  Cl  Cl9  1  0.75000000  0.45837870  0.28060613  1
  Cl  Cl10  1  0.75000000  0.04162130  0.78060613  1
  Cl  Cl11  1  0.25000000  0.95837870  0.21939387  1
  Cl  Cl12  1  0.25000000  0.57587500  0.39719371  1
  Cl  Cl13  1  0.75000000  0.42412500  0.60280629  1
  Cl  Cl14  1  0.75000000  0.07587500  0.10280629  1
  Cl  Cl15  1  0.25000000  0.92412500  0.89719371  1
  Cl  Cl16  1  0.00032292  0.82707068  0.58062648  1
  Cl  Cl17  1  0.50032292  0.17292932  0.41937352  1
  Cl  Cl18  1  -0.00032292  0.32707068  0.91937352  1
  Cl  Cl19  1  0.49967708  0.67292932  0.08062648  1
  Cl  Cl20  1  -0.00032292  0.17292932  0.41937352  1
  Cl  Cl21  1  0.49967708  0.82707068  0.58062648  1
  Cl  Cl22  1  0.00032292  0.67292932  0.08062648  1
  Cl  Cl23  1  0.50032292  0.32707068  0.91937352  1
