# generated using pymatgen
data_CsMnAs
_symmetry_space_group_name_H-M   'P 1'
_cell_length_a   4.44845363
_cell_length_b   4.44845363
_cell_length_c   12.33393241
_cell_angle_alpha   90.00000000
_cell_angle_beta   90.00000000
_cell_angle_gamma   90.00000000
_symmetry_Int_Tables_number   1
_chemical_formula_structural   CsMnAs
_chemical_formula_sum   'Cs2 Mn2 As2'
_cell_volume   244.07297792
_cell_formula_units_Z   2
loop_
 _symmetry_equiv_pos_site_id
 _symmetry_equiv_pos_as_xyz
  1  'x, y, z'
loop_
 _atom_site_type_symbol
 _atom_site_label
 _atom_site_symmetry_multiplicity
 _atom_site_fract_x
 _atom_site_fract_y
 _atom_site_fract_z
 _atom_site_occupancy
  Cs  Cs0  1  0.25000000  0.25000000  0.73216737  1
  Cs  Cs1  1  0.75000000  0.75000000  0.26783263  1
  Mn  Mn2  1  0.25000000  0.75000000  -0.00000000  1
  Mn  Mn3  1  0.75000000  0.25000000  -0.00000000  1
  As  As4  1  0.25000000  0.25000000  0.11472567  1
  As  As5  1  0.75000000  0.75000000  0.88527433  1
