# generated using pymatgen
data_SiO2
_symmetry_space_group_name_H-M   'P 1'
_cell_length_a   5.00383407
_cell_length_b   6.66354480
_cell_length_c   6.66395177
_cell_angle_alpha   81.89814893
_cell_angle_beta   67.94506859
_cell_angle_gamma   67.94819581
_symmetry_Int_Tables_number   1
_chemical_formula_structural   SiO2
_chemical_formula_sum   'Si4 O8'
_cell_volume   190.87298895
_cell_formula_units_Z   4
loop_
 _symmetry_equiv_pos_site_id
 _symmetry_equiv_pos_as_xyz
  1  'x, y, z'
loop_
 _atom_site_type_symbol
 _atom_site_label
 _atom_site_symmetry_multiplicity
 _atom_site_fract_x
 _atom_site_fract_y
 _atom_site_fract_z
 _atom_site_occupancy
  Si  Si0  1  0.80427077  0.35243166  0.00197007  1
  Si  Si1  1  0.19374643  0.00199233  0.64753088  1
  Si  Si2  1  0.84330720  0.99797426  0.35247386  1
  Si  Si3  1  0.15868942  0.64758701  0.99804626  1
  O  O4  1  0.91811388  0.52260558  0.06518281  1
  O  O5  1  0.55920827  0.93484199  0.52247072  1
  O  O6  1  0.01647350  0.06516127  0.47756551  1
  O  O7  1  0.08638470  0.79222750  0.19975008  1
  O  O8  1  0.07834941  0.20779381  0.80022295  1
  O  O9  1  0.71412912  0.19962001  0.20770492  1
  O  O10  1  0.50591551  0.47740064  0.93475619  1
  O  O11  1  0.12141380  0.80036393  0.79232675  1
