# generated using pymatgen
data_SmCo3B2
_symmetry_space_group_name_H-M   'P 1'
_cell_length_a   5.08932746
_cell_length_b   5.08933803
_cell_length_c   2.93169067
_cell_angle_alpha   90.00000000
_cell_angle_beta   90.00000000
_cell_angle_gamma   120.00008017
_symmetry_Int_Tables_number   1
_chemical_formula_structural   SmCo3B2
_chemical_formula_sum   'Sm1 Co3 B2'
_cell_volume   65.76125894
_cell_formula_units_Z   1
loop_
 _symmetry_equiv_pos_site_id
 _symmetry_equiv_pos_as_xyz
  1  'x, y, z'
loop_
 _atom_site_type_symbol
 _atom_site_label
 _atom_site_symmetry_multiplicity
 _atom_site_fract_x
 _atom_site_fract_y
 _atom_site_fract_z
 _atom_site_occupancy
  Sm  Sm0  1  0.00000000  0.00000000  -0.00000000  1
  Co  Co1  1  0.50000000  0.00000000  0.50000000  1
  Co  Co2  1  0.50000000  0.50000000  0.50000000  1
  Co  Co3  1  0.00000000  0.50000000  0.50000000  1
  B  B4  1  0.33331967  0.66665784  0.00000000  1
  B  B5  1  0.66668033  0.33334216  -0.00000000  1
