# generated using pymatgen
data_Ta2Ni3Se8
_symmetry_space_group_name_H-M   'P 1'
_cell_length_a   3.47353933
_cell_length_b   10.72994962
_cell_length_c   14.93683777
_cell_angle_alpha   90.00000000
_cell_angle_beta   90.00000000
_cell_angle_gamma   90.00000000
_symmetry_Int_Tables_number   1
_chemical_formula_structural   Ta2Ni3Se8
_chemical_formula_sum   'Ta4 Ni6 Se16'
_cell_volume   556.70941692
_cell_formula_units_Z   2
loop_
 _symmetry_equiv_pos_site_id
 _symmetry_equiv_pos_as_xyz
  1  'x, y, z'
loop_
 _atom_site_type_symbol
 _atom_site_label
 _atom_site_symmetry_multiplicity
 _atom_site_fract_x
 _atom_site_fract_y
 _atom_site_fract_z
 _atom_site_occupancy
  Ta  Ta0  1  0.50000000  0.80404392  0.87638271  1
  Ta  Ta1  1  0.50000000  0.19595608  0.12361729  1
  Ta  Ta2  1  0.50000000  0.30404392  0.62361729  1
  Ta  Ta3  1  0.50000000  0.69595608  0.37638271  1
  Ni  Ni4  1  0.00000000  0.00000000  0.00000000  1
  Ni  Ni5  1  -0.00000000  0.50000000  0.50000000  1
  Ni  Ni6  1  0.00000000  0.64215296  0.77441826  1
  Ni  Ni7  1  0.00000000  0.35784704  0.22558174  1
  Ni  Ni8  1  0.00000000  0.14215296  0.72558174  1
  Ni  Ni9  1  0.00000000  0.85784704  0.27441826  1
  Se  Se10  1  0.00000000  0.78342106  0.00402174  1
  Se  Se11  1  0.00000000  0.21657894  0.99597826  1
  Se  Se12  1  -0.00000000  0.28342106  0.49597826  1
  Se  Se13  1  -0.00000000  0.71657894  0.50402174  1
  Se  Se14  1  0.00000000  0.98016730  0.84433326  1
  Se  Se15  1  -0.00000000  0.01983270  0.15566674  1
  Se  Se16  1  -0.00000000  0.48016730  0.65566674  1
  Se  Se17  1  -0.00000000  0.51983270  0.34433326  1
  Se  Se18  1  0.50000000  0.76157506  0.71017310  1
  Se  Se19  1  0.50000000  0.23842494  0.28982690  1
  Se  Se20  1  0.50000000  0.26157506  0.78982690  1
  Se  Se21  1  0.50000000  0.73842494  0.21017310  1
  Se  Se22  1  0.50000000  0.56691180  0.86714635  1
  Se  Se23  1  0.50000000  0.43308820  0.13285365  1
  Se  Se24  1  0.50000000  0.06691180  0.63285365  1
  Se  Se25  1  0.50000000  0.93308820  0.36714635  1
