# generated using pymatgen
data_Tm8Ga3Co
_symmetry_space_group_name_H-M   'P 1'
_cell_length_a   9.79188764
_cell_length_b   9.79188582
_cell_length_c   6.81296715
_cell_angle_alpha   90.00002603
_cell_angle_beta   89.99999467
_cell_angle_gamma   119.99952651
_symmetry_Int_Tables_number   1
_chemical_formula_structural   Tm8Ga3Co
_chemical_formula_sum   'Tm16 Ga6 Co2'
_cell_volume   565.72029720
_cell_formula_units_Z   2
loop_
 _symmetry_equiv_pos_site_id
 _symmetry_equiv_pos_as_xyz
  1  'x, y, z'
loop_
 _atom_site_type_symbol
 _atom_site_label
 _atom_site_symmetry_multiplicity
 _atom_site_fract_x
 _atom_site_fract_y
 _atom_site_fract_z
 _atom_site_occupancy
  Tm  Tm0  1  0.17329869  0.82670171  0.99001549  1
  Tm  Tm1  1  0.34660312  0.17330264  0.49001300  1
  Tm  Tm2  1  0.82669770  0.65339675  0.49001415  1
  Tm  Tm3  1  0.17329812  0.34659491  0.99001564  1
  Tm  Tm4  1  0.65340488  0.82670178  0.99001567  1
  Tm  Tm5  1  0.82669772  0.17330232  0.49001249  1
  Tm  Tm6  1  0.33333359  0.66666671  0.67087547  1
  Tm  Tm7  1  0.66666663  0.33333336  0.17087276  1
  Tm  Tm8  1  0.46338767  0.53661230  0.29103657  1
  Tm  Tm9  1  0.92676440  0.46338174  0.79103807  1
  Tm  Tm10  1  0.53661803  0.07323577  0.79103785  1
  Tm  Tm11  1  0.46338749  0.92677559  0.29103700  1
  Tm  Tm12  1  0.07322449  0.53661233  0.29103691  1
  Tm  Tm13  1  0.53661774  0.46338200  0.79103826  1
  Tm  Tm14  1  0.00000018  -0.00000012  0.26864486  1
  Tm  Tm15  1  0.00000009  0.00000019  0.76864217  1
  Ga  Ga16  1  0.16366311  0.83633744  0.54085107  1
  Ga  Ga17  1  0.32734974  0.16367355  0.04085752  1
  Ga  Ga18  1  0.83632659  0.67265041  0.04085724  1
  Ga  Ga19  1  0.16366117  0.32732510  0.54085195  1
  Ga  Ga20  1  0.67267499  0.83633883  0.54085198  1
  Ga  Ga21  1  0.83632491  0.16367510  0.04085619  1
  Co  Co22  1  0.33333379  0.66666585  0.05677258  1
  Co  Co23  1  0.66666617  0.33333374  0.55676410  1
