# generated using pymatgen
data_TlCr5S8
_symmetry_space_group_name_H-M   'P 1'
_cell_length_a   3.48405226
_cell_length_b   8.70424778
_cell_length_c   9.16431103
_cell_angle_alpha   104.95851395
_cell_angle_beta   100.95630386
_cell_angle_gamma   89.99927590
_symmetry_Int_Tables_number   1
_chemical_formula_structural   TlCr5S8
_chemical_formula_sum   'Tl1 Cr5 S8'
_cell_volume   263.25285459
_cell_formula_units_Z   1
loop_
 _symmetry_equiv_pos_site_id
 _symmetry_equiv_pos_as_xyz
  1  'x, y, z'
loop_
 _atom_site_type_symbol
 _atom_site_label
 _atom_site_symmetry_multiplicity
 _atom_site_fract_x
 _atom_site_fract_y
 _atom_site_fract_z
 _atom_site_occupancy
  Tl  Tl0  1  0.00009544  0.00002813  0.00000485  1
  Cr  Cr1  1  0.49999505  0.49999964  -0.00000024  1
  Cr  Cr2  1  0.20378555  0.83513134  0.40788217  1
  Cr  Cr3  1  0.79619126  0.16486206  0.59211347  1
  Cr  Cr4  1  0.84168298  0.52789714  0.68357744  1
  Cr  Cr5  1  0.15830512  0.47209903  0.31642242  1
  S  S6  1  0.32882580  0.01195907  0.65765400  1
  S  S7  1  0.67115889  0.98803620  0.34234602  1
  S  S8  1  0.73742185  0.65523119  0.47470780  1
  S  S9  1  0.26255702  0.34476334  0.52529161  1
  S  S10  1  0.41549579  0.67412625  0.83124424  1
  S  S11  1  0.58449744  0.32587076  0.16875677  1
  S  S12  1  0.07680838  0.64834308  0.15363746  1
  S  S13  1  0.92317842  0.35165278  0.84636200  1
