# generated using pymatgen
data_KPr3Te8
_symmetry_space_group_name_H-M   'P 1'
_cell_length_a   13.04152199
_cell_length_b   9.05771865
_cell_length_c   14.26416684
_cell_angle_alpha   80.83680501
_cell_angle_beta   90.00000000
_cell_angle_gamma   90.00000000
_symmetry_Int_Tables_number   1
_chemical_formula_structural   KPr3Te8
_chemical_formula_sum   'K4 Pr12 Te32'
_cell_volume   1663.47283913
_cell_formula_units_Z   4
loop_
 _symmetry_equiv_pos_site_id
 _symmetry_equiv_pos_as_xyz
  1  'x, y, z'
loop_
 _atom_site_type_symbol
 _atom_site_label
 _atom_site_symmetry_multiplicity
 _atom_site_fract_x
 _atom_site_fract_y
 _atom_site_fract_z
 _atom_site_occupancy
  K  K0  1  0.90775725  0.75801004  0.96587942  1
  K  K1  1  0.59224275  0.25801004  0.96587942  1
  K  K2  1  0.09224275  0.24198996  0.03412058  1
  K  K3  1  0.40775725  0.74198996  0.03412058  1
  Pr  Pr4  1  0.91513043  0.58025738  0.65036910  1
  Pr  Pr5  1  0.58486957  0.08025738  0.65036910  1
  Pr  Pr6  1  0.41607576  0.40516927  0.35132072  1
  Pr  Pr7  1  0.75081075  0.91321674  0.34548052  1
  Pr  Pr8  1  0.08392424  0.90516927  0.35132072  1
  Pr  Pr9  1  0.74918925  0.41321674  0.34548052  1
  Pr  Pr10  1  0.41513043  0.91974262  0.34963090  1
  Pr  Pr11  1  0.58392424  0.59483073  0.64867928  1
  Pr  Pr12  1  0.25081075  0.58678326  0.65451948  1
  Pr  Pr13  1  0.91607576  0.09483073  0.64867928  1
  Pr  Pr14  1  0.24918925  0.08678326  0.65451948  1
  Pr  Pr15  1  0.08486957  0.41974262  0.34963090  1
  Te  Te16  1  0.24926030  0.95746615  0.17248048  1
  Te  Te17  1  0.08556703  0.35576018  0.58622655  1
  Te  Te18  1  0.41998232  0.35073018  0.58738401  1
  Te  Te19  1  0.92063745  0.96962103  0.16759165  1
  Te  Te20  1  0.57936255  0.46962103  0.16759165  1
  Te  Te21  1  0.75073970  0.04253385  0.82751952  1
  Te  Te22  1  0.91998232  0.14926982  0.41261599  1
  Te  Te23  1  0.08001768  0.85073018  0.58738401  1
  Te  Te24  1  0.25452198  0.64555622  0.41806404  1
  Te  Te25  1  0.42063745  0.53037897  0.83240835  1
  Te  Te26  1  0.22287874  0.78986799  0.83946352  1
  Te  Te27  1  0.41952027  0.05235603  0.83247330  1
  Te  Te28  1  0.24547802  0.14555622  0.41806404  1
  Te  Te29  1  0.58556703  0.14423982  0.41377345  1
  Te  Te30  1  0.72287874  0.71013201  0.16053648  1
  Te  Te31  1  0.58001768  0.64926982  0.41261599  1
  Te  Te32  1  0.08047973  0.55235603  0.83247330  1
  Te  Te33  1  0.27712126  0.28986799  0.83946352  1
  Te  Te34  1  0.90297291  0.29141921  0.82966232  1
  Te  Te35  1  0.75452198  0.85444378  0.58193596  1
  Te  Te36  1  0.41443297  0.85576018  0.58622655  1
  Te  Te37  1  0.09702709  0.70858079  0.17033768  1
  Te  Te38  1  0.40297291  0.20858079  0.17033768  1
  Te  Te39  1  0.77712126  0.21013201  0.16053648  1
  Te  Te40  1  0.07936255  0.03037897  0.83240835  1
  Te  Te41  1  0.74547802  0.35444378  0.58193596  1
  Te  Te42  1  0.91443297  0.64423982  0.41377345  1
  Te  Te43  1  0.74926030  0.54253385  0.82751952  1
  Te  Te44  1  0.59702709  0.79141921  0.82966232  1
  Te  Te45  1  0.25073970  0.45746615  0.17248048  1
  Te  Te46  1  0.58047973  0.94764397  0.16752670  1
  Te  Te47  1  0.91952027  0.44764397  0.16752670  1
