# generated using pymatgen
data_Tb3(CuSn)4
_symmetry_space_group_name_H-M   'P 1'
_cell_length_a   4.45581776
_cell_length_b   6.91798534
_cell_length_c   8.42643913
_cell_angle_alpha   114.28813014
_cell_angle_beta   105.30752454
_cell_angle_gamma   89.94790996
_symmetry_Int_Tables_number   1
_chemical_formula_structural   Tb3(CuSn)4
_chemical_formula_sum   'Tb3 Cu4 Sn4'
_cell_volume   226.63788212
_cell_formula_units_Z   1
loop_
 _symmetry_equiv_pos_site_id
 _symmetry_equiv_pos_as_xyz
  1  'x, y, z'
loop_
 _atom_site_type_symbol
 _atom_site_label
 _atom_site_symmetry_multiplicity
 _atom_site_fract_x
 _atom_site_fract_y
 _atom_site_fract_z
 _atom_site_occupancy
  Tb  Tb0  1  0.86810100  0.36898126  0.73569295  1
  Tb  Tb1  1  -0.00000000  0.00000000  0.00000000  1
  Tb  Tb2  1  0.13189900  0.63101874  0.26430705  1
  Cu  Cu3  1  0.67383894  0.98442360  0.34207033  1
  Cu  Cu4  1  0.32984754  0.64362884  0.66198553  1
  Cu  Cu5  1  0.67015246  0.35637116  0.33801447  1
  Cu  Cu6  1  0.32616106  0.01557640  0.65792967  1
  Sn  Sn7  1  0.50109376  0.70314620  0.00169822  1
  Sn  Sn8  1  0.49890624  0.29685380  0.99830178  1
  Sn  Sn9  1  0.78202702  0.78218186  0.56740377  1
  Sn  Sn10  1  0.21797298  0.21781814  0.43259623  1
