# generated using pymatgen
data_KCeF4
_symmetry_space_group_name_H-M   'P 1'
_cell_length_a   3.76337457
_cell_length_b   6.28850512
_cell_length_c   15.59749195
_cell_angle_alpha   90.00000000
_cell_angle_beta   90.00000000
_cell_angle_gamma   90.00000000
_symmetry_Int_Tables_number   1
_chemical_formula_structural   KCeF4
_chemical_formula_sum   'K4 Ce4 F16'
_cell_volume   369.13024842
_cell_formula_units_Z   4
loop_
 _symmetry_equiv_pos_site_id
 _symmetry_equiv_pos_as_xyz
  1  'x, y, z'
loop_
 _atom_site_type_symbol
 _atom_site_label
 _atom_site_symmetry_multiplicity
 _atom_site_fract_x
 _atom_site_fract_y
 _atom_site_fract_z
 _atom_site_occupancy
  K  K0  1  0.25000000  0.22249881  0.29785503  1
  K  K1  1  0.75000000  0.77750119  0.70214497  1
  K  K2  1  0.25000000  0.72249881  0.20214497  1
  K  K3  1  0.75000000  0.27750119  0.79785503  1
  Ce  Ce4  1  0.75000000  0.24859455  0.06189812  1
  Ce  Ce5  1  0.25000000  0.75140545  0.93810188  1
  Ce  Ce6  1  0.75000000  0.74859455  0.43810188  1
  Ce  Ce7  1  0.25000000  0.25140545  0.56189812  1
  F  F8  1  0.75000000  0.36339231  0.46297828  1
  F  F9  1  0.25000000  0.63660769  0.53702172  1
  F  F10  1  0.75000000  0.86339231  0.03702172  1
  F  F11  1  0.25000000  0.13660769  0.96297828  1
  F  F12  1  0.25000000  0.50761267  0.05962348  1
  F  F13  1  0.75000000  0.49238733  0.94037652  1
  F  F14  1  0.25000000  0.00761267  0.44037652  1
  F  F15  1  0.75000000  0.99238733  0.55962348  1
  F  F16  1  0.25000000  0.10083598  0.13716942  1
  F  F17  1  0.75000000  0.89916402  0.86283058  1
  F  F18  1  0.25000000  0.60083598  0.36283058  1
  F  F19  1  0.75000000  0.39916402  0.63716942  1
  F  F20  1  0.75000000  0.41177061  0.19466746  1
  F  F21  1  0.25000000  0.58822939  0.80533254  1
  F  F22  1  0.75000000  0.91177061  0.30533254  1
  F  F23  1  0.25000000  0.08822939  0.69466746  1
