# generated using pymatgen
data_V2CuO6
_symmetry_space_group_name_H-M   'P 1'
_cell_length_a   4.92001243
_cell_length_b   4.92001243
_cell_length_c   6.43476933
_cell_angle_alpha   70.78591671
_cell_angle_beta   70.78591671
_cell_angle_gamma   41.89076530
_symmetry_Int_Tables_number   1
_chemical_formula_structural   V2CuO6
_chemical_formula_sum   'V2 Cu1 O6'
_cell_volume   97.33382497
_cell_formula_units_Z   1
loop_
 _symmetry_equiv_pos_site_id
 _symmetry_equiv_pos_as_xyz
  1  'x, y, z'
loop_
 _atom_site_type_symbol
 _atom_site_label
 _atom_site_symmetry_multiplicity
 _atom_site_fract_x
 _atom_site_fract_y
 _atom_site_fract_z
 _atom_site_occupancy
  V  V0  1  0.80740210  0.80740210  0.15776075  1
  V  V1  1  0.19259790  0.19259790  0.84223925  1
  Cu  Cu2  1  0.00000000  0.00000000  0.50000000  1
  O  O3  1  0.97094670  0.97094670  0.22538862  1
  O  O4  1  0.02905330  0.02905330  0.77461138  1
  O  O5  1  0.65544364  0.65544364  0.39519799  1
  O  O6  1  0.34455636  0.34455636  0.60480201  1
  O  O7  1  0.69386807  0.69386807  0.93110181  1
  O  O8  1  0.30613193  0.30613193  0.06889819  1
