# generated using pymatgen
data_CaGaGe
_symmetry_space_group_name_H-M   'P 1'
_cell_length_a   4.19258104
_cell_length_b   4.19258163
_cell_length_c   17.48947605
_cell_angle_alpha   90.00000000
_cell_angle_beta   90.00000000
_cell_angle_gamma   120.00000324
_symmetry_Int_Tables_number   1
_chemical_formula_structural   CaGaGe
_chemical_formula_sum   'Ca4 Ga4 Ge4'
_cell_volume   266.23822528
_cell_formula_units_Z   4
loop_
 _symmetry_equiv_pos_site_id
 _symmetry_equiv_pos_as_xyz
  1  'x, y, z'
loop_
 _atom_site_type_symbol
 _atom_site_label
 _atom_site_symmetry_multiplicity
 _atom_site_fract_x
 _atom_site_fract_y
 _atom_site_fract_z
 _atom_site_occupancy
  Ca  Ca0  1  -0.00000000  -0.00000000  0.00000000  1
  Ca  Ca1  1  -0.00000000  -0.00000000  0.50000000  1
  Ca  Ca2  1  -0.00000000  0.00000000  0.25000000  1
  Ca  Ca3  1  -0.00000000  -0.00000000  0.75000000  1
  Ga  Ga4  1  0.33333300  0.66666700  0.15203096  1
  Ga  Ga5  1  0.66666700  0.33333300  0.65203096  1
  Ga  Ga6  1  0.66666700  0.33333300  0.84796904  1
  Ga  Ga7  1  0.33333300  0.66666700  0.34796904  1
  Ge  Ge8  1  0.33333300  0.66666700  0.61129076  1
  Ge  Ge9  1  0.66666700  0.33333300  0.11129076  1
  Ge  Ge10  1  0.66666700  0.33333300  0.38870924  1
  Ge  Ge11  1  0.33333300  0.66666700  0.88870924  1
