# generated using pymatgen
data_Cs2SO4
_symmetry_space_group_name_H-M   'P 1'
_cell_length_a   6.25042772
_cell_length_b   8.25399657
_cell_length_c   10.94331742
_cell_angle_alpha   90.00000000
_cell_angle_beta   90.00000000
_cell_angle_gamma   90.00000000
_symmetry_Int_Tables_number   1
_chemical_formula_structural   Cs2SO4
_chemical_formula_sum   'Cs8 S4 O16'
_cell_volume   564.57678709
_cell_formula_units_Z   4
loop_
 _symmetry_equiv_pos_site_id
 _symmetry_equiv_pos_as_xyz
  1  'x, y, z'
loop_
 _atom_site_type_symbol
 _atom_site_label
 _atom_site_symmetry_multiplicity
 _atom_site_fract_x
 _atom_site_fract_y
 _atom_site_fract_z
 _atom_site_occupancy
  Cs  Cs0  1  0.75000000  0.82533637  0.09082497  1
  Cs  Cs1  1  0.25000000  0.17466363  0.90917503  1
  Cs  Cs2  1  0.75000000  0.32533637  0.40917503  1
  Cs  Cs3  1  0.25000000  0.67466363  0.59082497  1
  Cs  Cs4  1  0.25000000  0.48911850  0.19868953  1
  Cs  Cs5  1  0.75000000  0.51088150  0.80131047  1
  Cs  Cs6  1  0.25000000  0.98911850  0.30131047  1
  Cs  Cs7  1  0.75000000  0.01088150  0.69868953  1
  S  S8  1  0.75000000  0.25824404  0.08349279  1
  S  S9  1  0.25000000  0.74175596  0.91650721  1
  S  S10  1  0.75000000  0.75824404  0.41650721  1
  S  S11  1  0.25000000  0.24175596  0.58349279  1
  O  O12  1  0.75000000  0.43719492  0.08718472  1
  O  O13  1  0.25000000  0.56280508  0.91281528  1
  O  O14  1  0.75000000  0.93719492  0.41281528  1
  O  O15  1  0.25000000  0.06280508  0.58718472  1
  O  O16  1  0.75000000  0.20033902  0.95489158  1
  O  O17  1  0.25000000  0.79966098  0.04510842  1
  O  O18  1  0.75000000  0.70033902  0.54510842  1
  O  O19  1  0.25000000  0.29966098  0.45489158  1
  O  O20  1  0.55639801  0.19524905  0.14600913  1
  O  O21  1  0.05639801  0.80475095  0.85399087  1
  O  O22  1  0.94360199  0.69524905  0.35399087  1
  O  O23  1  0.44360199  0.30475095  0.64600913  1
  O  O24  1  0.44360199  0.80475095  0.85399087  1
  O  O25  1  0.94360199  0.19524905  0.14600913  1
  O  O26  1  0.05639801  0.30475095  0.64600913  1
  O  O27  1  0.55639801  0.69524905  0.35399087  1
