# generated using pymatgen
data_KCaF3
_symmetry_space_group_name_H-M   'P 1'
_cell_length_a   6.12777352
_cell_length_b   6.22062595
_cell_length_c   8.71579992
_cell_angle_alpha   90.00000000
_cell_angle_beta   90.00000000
_cell_angle_gamma   90.00000000
_symmetry_Int_Tables_number   1
_chemical_formula_structural   KCaF3
_chemical_formula_sum   'K4 Ca4 F12'
_cell_volume   332.23397730
_cell_formula_units_Z   4
loop_
 _symmetry_equiv_pos_site_id
 _symmetry_equiv_pos_as_xyz
  1  'x, y, z'
loop_
 _atom_site_type_symbol
 _atom_site_label
 _atom_site_symmetry_multiplicity
 _atom_site_fract_x
 _atom_site_fract_y
 _atom_site_fract_z
 _atom_site_occupancy
  K  K0  1  0.49118768  0.03968915  0.25000000  1
  K  K1  1  0.99118768  0.46031085  0.75000000  1
  K  K2  1  0.00881232  0.53968915  0.25000000  1
  K  K3  1  0.50881232  0.96031085  0.75000000  1
  Ca  Ca4  1  0.00000000  0.00000000  -0.00000000  1
  Ca  Ca5  1  0.50000000  0.50000000  -0.00000000  1
  Ca  Ca6  1  0.50000000  0.50000000  0.50000000  1
  Ca  Ca7  1  0.00000000  0.00000000  0.50000000  1
  F  F8  1  0.20674961  0.29194532  0.45700143  1
  F  F9  1  0.70674961  0.20805468  0.54299857  1
  F  F10  1  0.29325039  0.79194532  0.04299857  1
  F  F11  1  0.79325039  0.70805468  0.95700143  1
  F  F12  1  0.79325039  0.70805468  0.54299857  1
  F  F13  1  0.29325039  0.79194532  0.45700143  1
  F  F14  1  0.70674961  0.20805468  0.95700143  1
  F  F15  1  0.20674961  0.29194532  0.04299857  1
  F  F16  1  0.91834125  0.97146200  0.25000000  1
  F  F17  1  0.41834125  0.52853800  0.75000000  1
  F  F18  1  0.58165875  0.47146200  0.25000000  1
  F  F19  1  0.08165875  0.02853800  0.75000000  1
