# generated using pymatgen
data_K3(PdO2)2
_symmetry_space_group_name_H-M   'P 1'
_cell_length_a   5.51085636
_cell_length_b   5.51040901
_cell_length_c   11.33917450
_cell_angle_alpha   89.96643352
_cell_angle_beta   90.03042133
_cell_angle_gamma   112.39973874
_symmetry_Int_Tables_number   1
_chemical_formula_structural   K3(PdO2)2
_chemical_formula_sum   'K6 Pd4 O8'
_cell_volume   318.35642808
_cell_formula_units_Z   2
loop_
 _symmetry_equiv_pos_site_id
 _symmetry_equiv_pos_as_xyz
  1  'x, y, z'
loop_
 _atom_site_type_symbol
 _atom_site_label
 _atom_site_symmetry_multiplicity
 _atom_site_fract_x
 _atom_site_fract_y
 _atom_site_fract_z
 _atom_site_occupancy
  K  K0  1  0.35227116  0.64776125  0.56672131  1
  K  K1  1  0.64778247  0.35221642  0.06663589  1
  K  K2  1  0.28644998  0.71354215  0.24977221  1
  K  K3  1  0.64772884  0.35223875  0.43327869  1
  K  K4  1  0.71355002  0.28645785  0.75022779  1
  K  K5  1  0.35221753  0.64778358  0.93336411  1
  Pd  Pd6  1  0.07786973  0.92229370  0.75003645  1
  Pd  Pd7  1  -0.00000000  0.00000000  0.00000000  1
  Pd  Pd8  1  0.92213027  0.07770630  0.24996355  1
  Pd  Pd9  1  -0.00000000  0.00000000  0.50000000  1
  O  O10  1  0.12942787  0.29520334  0.38491072  1
  O  O11  1  0.70477046  0.87053334  0.38489344  1
  O  O12  1  0.29522954  0.12946666  0.61510656  1
  O  O13  1  0.70463563  0.87047005  0.11504338  1
  O  O14  1  0.87057213  0.70479666  0.61508928  1
  O  O15  1  0.29536437  0.12952995  0.88495662  1
  O  O16  1  0.12946199  0.29532247  0.11503052  1
  O  O17  1  0.87053801  0.70467753  0.88496948  1
