# generated using pymatgen
data_Cs3Mo2Cl9
_symmetry_space_group_name_H-M   'P 1'
_cell_length_a   7.38763290
_cell_length_b   7.38763296
_cell_length_c   17.94127565
_cell_angle_alpha   89.99999258
_cell_angle_beta   90.00001477
_cell_angle_gamma   120.00005274
_symmetry_Int_Tables_number   1
_chemical_formula_structural   Cs3Mo2Cl9
_chemical_formula_sum   'Cs6 Mo4 Cl18'
_cell_volume   847.99704028
_cell_formula_units_Z   2
loop_
 _symmetry_equiv_pos_site_id
 _symmetry_equiv_pos_as_xyz
  1  'x, y, z'
loop_
 _atom_site_type_symbol
 _atom_site_label
 _atom_site_symmetry_multiplicity
 _atom_site_fract_x
 _atom_site_fract_y
 _atom_site_fract_z
 _atom_site_occupancy
  Cs  Cs0  1  -0.00000017  -0.00000016  0.25001093  1
  Cs  Cs1  1  0.00000005  0.00000006  0.74998878  1
  Cs  Cs2  1  0.33333323  0.66666691  0.07191694  1
  Cs  Cs3  1  0.66666668  0.33333312  0.57194401  1
  Cs  Cs4  1  0.66666661  0.33333369  0.92805614  1
  Cs  Cs5  1  0.33333315  0.66666658  0.42808575  1
  Mo  Mo6  1  0.33333326  0.66666680  0.82704574  1
  Mo  Mo7  1  0.66666678  0.33333324  0.32707897  1
  Mo  Mo8  1  0.66666636  0.33333290  0.17295296  1
  Mo  Mo9  1  0.33333313  0.66666645  0.67292352  1
  Cl  Cl10  1  0.50501660  0.00999639  0.25000535  1
  Cl  Cl11  1  0.49498695  0.50497712  0.74999475  1
  Cl  Cl12  1  0.00999000  0.50501304  0.74999470  1
  Cl  Cl13  1  0.99000353  0.49502019  0.25000539  1
  Cl  Cl14  1  0.50497980  0.49498314  0.25000537  1
  Cl  Cl15  1  0.49502302  0.99001024  0.74999471  1
  Cl  Cl16  1  0.82105461  0.64214722  0.09627264  1
  Cl  Cl17  1  0.17894612  0.82109302  0.59626377  1
  Cl  Cl18  1  0.64214702  0.82105404  0.59626385  1
  Cl  Cl19  1  0.35785300  0.17890726  0.09627272  1
  Cl  Cl20  1  0.82109247  0.17894543  0.09627262  1
  Cl  Cl21  1  0.17890054  0.35784922  0.90372296  1
  Cl  Cl22  1  0.17894870  0.82109939  0.90372311  1
  Cl  Cl23  1  0.17890697  0.35785327  0.59626387  1
  Cl  Cl24  1  0.64215083  0.82105184  0.90372300  1
  Cl  Cl25  1  0.35785243  0.17890781  0.40373980  1
  Cl  Cl26  1  0.82105555  0.64214735  0.40373975  1
  Cl  Cl27  1  0.82109175  0.17894444  0.40373991  1
