# generated using pymatgen
data_La(CoAs)2
_symmetry_space_group_name_H-M   'P 1'
_cell_length_a   4.08669157
_cell_length_b   4.08669075
_cell_length_c   5.90052795
_cell_angle_alpha   110.26108924
_cell_angle_beta   110.26110149
_cell_angle_gamma   89.99999849
_symmetry_Int_Tables_number   1
_chemical_formula_structural   La(CoAs)2
_chemical_formula_sum   'La1 Co2 As2'
_cell_volume   85.91824768
_cell_formula_units_Z   1
loop_
 _symmetry_equiv_pos_site_id
 _symmetry_equiv_pos_as_xyz
  1  'x, y, z'
loop_
 _atom_site_type_symbol
 _atom_site_label
 _atom_site_symmetry_multiplicity
 _atom_site_fract_x
 _atom_site_fract_y
 _atom_site_fract_z
 _atom_site_occupancy
  La  La0  1  -0.00000000  0.00000000  -0.00000000  1
  Co  Co1  1  0.25000000  0.75000000  0.50000000  1
  Co  Co2  1  0.75000000  0.25000000  0.50000000  1
  As  As3  1  0.35954311  0.35954311  0.71908722  1
  As  As4  1  0.64045689  0.64045689  0.28091278  1
