# generated using pymatgen
data_NaTiCuS3
_symmetry_space_group_name_H-M   'P 1'
_cell_length_a   3.57037789
_cell_length_b   9.57866171
_cell_length_c   12.83113575
_cell_angle_alpha   90.00000000
_cell_angle_beta   90.00000000
_cell_angle_gamma   90.00000000
_symmetry_Int_Tables_number   1
_chemical_formula_structural   NaTiCuS3
_chemical_formula_sum   'Na4 Ti4 Cu4 S12'
_cell_volume   438.81768269
_cell_formula_units_Z   4
loop_
 _symmetry_equiv_pos_site_id
 _symmetry_equiv_pos_as_xyz
  1  'x, y, z'
loop_
 _atom_site_type_symbol
 _atom_site_label
 _atom_site_symmetry_multiplicity
 _atom_site_fract_x
 _atom_site_fract_y
 _atom_site_fract_z
 _atom_site_occupancy
  Na  Na0  1  0.25000000  0.04179165  0.23278730  1
  Na  Na1  1  0.75000000  0.95820835  0.76721270  1
  Na  Na2  1  0.75000000  0.54179165  0.26721270  1
  Na  Na3  1  0.25000000  0.45820835  0.73278730  1
  Ti  Ti4  1  0.25000000  0.32621454  0.01184944  1
  Ti  Ti5  1  0.75000000  0.67378546  0.98815056  1
  Ti  Ti6  1  0.75000000  0.82621454  0.48815056  1
  Ti  Ti7  1  0.25000000  0.17378546  0.51184944  1
  Cu  Cu8  1  0.25000000  0.59476785  0.48786867  1
  Cu  Cu9  1  0.75000000  0.40523215  0.51213133  1
  Cu  Cu10  1  0.75000000  0.09476785  0.01213133  1
  Cu  Cu11  1  0.25000000  0.90523215  0.98786867  1
  S  S12  1  0.25000000  0.56550790  0.09534701  1
  S  S13  1  0.75000000  0.43449210  0.90465299  1
  S  S14  1  0.75000000  0.06550790  0.40465299  1
  S  S15  1  0.25000000  0.93449210  0.59534701  1
  S  S16  1  0.25000000  0.37292407  0.40085611  1
  S  S17  1  0.75000000  0.62707593  0.59914389  1
  S  S18  1  0.75000000  0.87292407  0.09914389  1
  S  S19  1  0.25000000  0.12707593  0.90085611  1
  S  S20  1  0.25000000  0.76105904  0.36549474  1
  S  S21  1  0.75000000  0.23894096  0.63450526  1
  S  S22  1  0.75000000  0.26105904  0.13450526  1
  S  S23  1  0.25000000  0.73894096  0.86549474  1
