# generated using pymatgen
data_SiO2
_symmetry_space_group_name_H-M   'P 1'
_cell_length_a   8.90528593
_cell_length_b   9.12954439
_cell_length_c   9.16808953
_cell_angle_alpha   111.54750548
_cell_angle_beta   98.15484889
_cell_angle_gamma   98.94268154
_symmetry_Int_Tables_number   1
_chemical_formula_structural   SiO2
_chemical_formula_sum   'Si12 O24'
_cell_volume   668.61145924
_cell_formula_units_Z   12
loop_
 _symmetry_equiv_pos_site_id
 _symmetry_equiv_pos_as_xyz
  1  'x, y, z'
loop_
 _atom_site_type_symbol
 _atom_site_label
 _atom_site_symmetry_multiplicity
 _atom_site_fract_x
 _atom_site_fract_y
 _atom_site_fract_z
 _atom_site_occupancy
  Si  Si0  1  0.33869369  0.90090577  0.71220148  1
  Si  Si1  1  0.70888256  0.80879257  0.00736905  1
  Si  Si2  1  0.69459828  0.00790761  0.80011767  1
  Si  Si3  1  0.68895452  0.11088083  0.30629207  1
  Si  Si4  1  0.33165109  0.00103376  0.21805823  1
  Si  Si5  1  0.35303281  0.70048057  0.92070034  1
  Si  Si6  1  0.11933213  0.39335892  0.89159668  1
  Si  Si7  1  0.90866404  0.59395172  0.09959757  1
  Si  Si8  1  0.67481044  0.30897805  0.10032148  1
  Si  Si9  1  0.11794305  0.87834433  0.40584936  1
  Si  Si10  1  0.31751352  0.19978944  0.01140828  1
  Si  Si11  1  0.90985700  0.10304408  0.59059561  1
  O  O12  1  0.22729676  0.84313116  0.53896183  1
  O  O13  1  0.22152327  0.99103962  0.33944059  1
  O  O14  1  0.25170940  0.52229823  0.87234202  1
  O  O15  1  0.50833155  0.08441538  0.31851866  1
  O  O16  1  0.27262201  0.10888845  0.12579407  1
  O  O17  1  0.70259942  0.18549602  0.93300899  1
  O  O18  1  0.98967729  0.96993462  0.48054678  1
  O  O19  1  0.04023819  0.25770318  0.71529732  1
  O  O20  1  0.77333162  0.48730012  0.14216521  1
  O  O21  1  0.74890221  0.89474526  0.88785373  1
  O  O22  1  0.03433178  0.70706744  0.26226561  1
  O  O23  1  0.30686104  0.06814917  0.83254501  1
  O  O24  1  0.79741488  0.16207530  0.48012399  1
  O  O25  1  0.83381119  0.70245643  0.01785987  1
  O  O26  1  0.30309104  0.76344816  0.78177510  1
  O  O27  1  0.49221419  0.31089599  0.08354064  1
  O  O28  1  0.80937108  0.02060504  0.68420065  1
  O  O29  1  0.51830357  0.92907851  0.69616682  1
  O  O30  1  0.99064147  0.47818793  0.97338818  1
  O  O31  1  0.73005675  0.25239008  0.24287641  1
  O  O32  1  0.19670851  0.31146353  0.00355437  1
  O  O33  1  0.32348411  0.82108090  0.08886766  1
  O  O34  1  0.71921960  0.94436739  0.18356344  1
  O  O35  1  0.53506095  0.69494545  0.93975825  1
