# generated using pymatgen
data_Fe7(PO4)6
_symmetry_space_group_name_H-M   'P 1'
_cell_length_a   6.38624984
_cell_length_b   7.85027811
_cell_length_c   9.33190645
_cell_angle_alpha   104.58337445
_cell_angle_beta   108.27350952
_cell_angle_gamma   101.05693870
_symmetry_Int_Tables_number   1
_chemical_formula_structural   Fe7(PO4)6
_chemical_formula_sum   'Fe7 P6 O24'
_cell_volume   410.85760126
_cell_formula_units_Z   1
loop_
 _symmetry_equiv_pos_site_id
 _symmetry_equiv_pos_as_xyz
  1  'x, y, z'
loop_
 _atom_site_type_symbol
 _atom_site_label
 _atom_site_symmetry_multiplicity
 _atom_site_fract_x
 _atom_site_fract_y
 _atom_site_fract_z
 _atom_site_occupancy
  Fe  Fe0  1  0.04308415  0.72096815  0.02348755  1
  Fe  Fe1  1  0.95691585  0.27903185  0.97651245  1
  Fe  Fe2  1  0.39224039  0.45169915  0.61003173  1
  Fe  Fe3  1  0.60775961  0.54830085  0.38996827  1
  Fe  Fe4  1  0.28141205  0.80606857  0.78975775  1
  Fe  Fe5  1  0.71858795  0.19393143  0.21024225  1
  Fe  Fe6  1  -0.00000000  0.00000000  0.50000000  1
  P  P7  1  0.60310772  0.77261196  0.12939630  1
  P  P8  1  0.39689228  0.22738804  0.87060370  1
  P  P9  1  0.08293001  0.59098162  0.32970124  1
  P  P10  1  0.91706999  0.40901838  0.67029876  1
  P  P11  1  0.76849703  0.85553472  0.72945265  1
  P  P12  1  0.23150297  0.14446528  0.27054735  1
  O  O13  1  0.37457097  0.77500252  0.00544681  1
  O  O14  1  0.62542903  0.22499748  0.99455319  1
  O  O15  1  0.75435594  0.72999490  0.03746505  1
  O  O16  1  0.24564406  0.27000510  0.96253495  1
  O  O17  1  0.54874889  0.63706506  0.21068371  1
  O  O18  1  0.45125111  0.36293494  0.78931629  1
  O  O19  1  0.72359876  0.96772278  0.26054936  1
  O  O20  1  0.27640124  0.03227722  0.73945064  1
  O  O21  1  0.05671891  0.54809895  0.15262659  1
  O  O22  1  0.94328109  0.45190105  0.84737341  1
  O  O23  1  0.30111667  0.54293336  0.41463889  1
  O  O24  1  0.69888333  0.45706664  0.58536111  1
  O  O25  1  0.09443795  0.78600850  0.41140157  1
  O  O26  1  0.90556205  0.21399150  0.58859843  1
  O  O27  1  0.87230587  0.46000255  0.33549248  1
  O  O28  1  0.12769413  0.53999745  0.66450752  1
  O  O29  1  0.54284477  0.73693777  0.72567752  1
  O  O30  1  0.45715523  0.26306223  0.27432248  1
  O  O31  1  0.78857167  0.05536949  0.79708852  1
  O  O32  1  0.21142833  0.94463051  0.20291148  1
  O  O33  1  0.76930038  0.80929534  0.55799525  1
  O  O34  1  0.23069962  0.19070466  0.44200475  1
  O  O35  1  0.97766597  0.80964488  0.83441303  1
  O  O36  1  0.02233403  0.19035512  0.16558697  1
