# generated using pymatgen
data_Fe2(SO4)3
_symmetry_space_group_name_H-M   'P 1'
_cell_length_a   8.82311764
_cell_length_b   8.82311082
_cell_length_c   8.82312335
_cell_angle_alpha   55.60850051
_cell_angle_beta   55.60844303
_cell_angle_gamma   55.60848957
_symmetry_Int_Tables_number   1
_chemical_formula_structural   Fe2(SO4)3
_chemical_formula_sum   'Fe4 S6 O24'
_cell_volume   436.18266334
_cell_formula_units_Z   2
loop_
 _symmetry_equiv_pos_site_id
 _symmetry_equiv_pos_as_xyz
  1  'x, y, z'
loop_
 _atom_site_type_symbol
 _atom_site_label
 _atom_site_symmetry_multiplicity
 _atom_site_fract_x
 _atom_site_fract_y
 _atom_site_fract_z
 _atom_site_occupancy
  Fe  Fe0  1  0.14405732  0.14405932  0.14405832  1
  Fe  Fe1  1  0.85594268  0.85594068  0.85594168  1
  Fe  Fe2  1  0.35071947  0.35071947  0.35071847  1
  Fe  Fe3  1  0.64928053  0.64928053  0.64928153  1
  S  S4  1  0.54093132  0.24766147  0.96406739  1
  S  S5  1  0.96406739  0.54093132  0.24766247  1
  S  S6  1  0.24766247  0.96406739  0.54093032  1
  S  S7  1  0.45906868  0.75233853  0.03593261  1
  S  S8  1  0.03593261  0.45906868  0.75233753  1
  S  S9  1  0.75233753  0.03593261  0.45906968  1
  O  O10  1  0.38825444  0.20505342  0.98868543  1
  O  O11  1  0.98868543  0.38825544  0.20505342  1
  O  O12  1  0.20505342  0.98868643  0.38825444  1
  O  O13  1  0.61174556  0.79494658  0.01131457  1
  O  O14  1  0.01131457  0.61174456  0.79494658  1
  O  O15  1  0.79494658  0.01131357  0.61174556  1
  O  O16  1  0.52282906  0.21523065  0.15561651  1
  O  O17  1  0.15561651  0.52282906  0.21523165  1
  O  O18  1  0.21523165  0.15561651  0.52283006  1
  O  O19  1  0.47717094  0.78476935  0.84438349  1
  O  O20  1  0.84438349  0.47717094  0.78476835  1
  O  O21  1  0.78476835  0.84438349  0.47716994  1
  O  O22  1  0.73599920  0.11631708  0.87833140  1
  O  O23  1  0.87833240  0.73599920  0.11631708  1
  O  O24  1  0.11631708  0.87833240  0.73599820  1
  O  O25  1  0.26400080  0.88368292  0.12166860  1
  O  O26  1  0.12166760  0.26400080  0.88368292  1
  O  O27  1  0.88368292  0.12166760  0.26400180  1
  O  O28  1  0.51798167  0.45320632  0.83037388  1
  O  O29  1  0.83037288  0.51798167  0.45320732  1
  O  O30  1  0.45320632  0.83037288  0.51798267  1
  O  O31  1  0.48201833  0.54679368  0.16962612  1
  O  O32  1  0.16962712  0.48201833  0.54679268  1
  O  O33  1  0.54679368  0.16962712  0.48201733  1
