# generated using pymatgen
data_DyMnO3
_symmetry_space_group_name_H-M   'P 1'
_cell_length_a   6.13604437
_cell_length_b   6.13604441
_cell_length_c   11.42852703
_cell_angle_alpha   89.99999992
_cell_angle_beta   90.00000010
_cell_angle_gamma   119.99952033
_symmetry_Int_Tables_number   1
_chemical_formula_structural   DyMnO3
_chemical_formula_sum   'Dy6 Mn6 O18'
_cell_volume   372.64901403
_cell_formula_units_Z   6
loop_
 _symmetry_equiv_pos_site_id
 _symmetry_equiv_pos_as_xyz
  1  'x, y, z'
loop_
 _atom_site_type_symbol
 _atom_site_label
 _atom_site_symmetry_multiplicity
 _atom_site_fract_x
 _atom_site_fract_y
 _atom_site_fract_z
 _atom_site_occupancy
  Dy  Dy0  1  0.00000005  0.00000002  0.28375272  1
  Dy  Dy1  1  0.00000005  0.00000006  0.78375340  1
  Dy  Dy2  1  0.33333336  0.66666672  0.23879309  1
  Dy  Dy3  1  0.66666673  0.33333352  0.73879658  1
  Dy  Dy4  1  0.33333351  0.66666676  0.73879664  1
  Dy  Dy5  1  0.66666667  0.33333335  0.23879311  1
  Mn  Mn6  1  0.33359039  0.00000606  0.00789849  1
  Mn  Mn7  1  0.33357846  0.33357841  0.50789729  1
  Mn  Mn8  1  -0.00000600  0.66640904  0.50789751  1
  Mn  Mn9  1  0.00000603  0.33359021  0.00789848  1
  Mn  Mn10  1  0.66642205  0.66642203  0.00789829  1
  Mn  Mn11  1  0.66640898  -0.00000607  0.50789749  1
  O  O12  1  0.30636286  0.00000091  0.17129199  1
  O  O13  1  0.30636591  0.30636593  0.67129404  1
  O  O14  1  -0.00000070  0.69363292  0.67129386  1
  O  O15  1  0.00000088  0.30636284  0.17129200  1
  O  O16  1  0.69363839  0.69363838  0.17129217  1
  O  O17  1  0.69363288  -0.00000069  0.67129387  1
  O  O18  1  0.64043178  -0.00000044  0.34471606  1
  O  O19  1  0.64043444  0.64043447  0.84471843  1
  O  O20  1  0.00000052  0.35956622  0.84471823  1
  O  O21  1  -0.00000042  0.64043181  0.34471605  1
  O  O22  1  0.35956773  0.35956774  0.34471629  1
  O  O23  1  0.35956622  0.00000052  0.84471824  1
  O  O24  1  0.00000065  0.00000069  0.48562013  1
  O  O25  1  -0.00000060  -0.00000061  0.98562192  1
  O  O26  1  0.33333310  0.66666653  0.02665775  1
  O  O27  1  0.66666694  0.33333361  0.52665907  1
  O  O28  1  0.33333358  0.66666698  0.52665907  1
  O  O29  1  0.66666653  0.33333308  0.02665775  1
