# generated using pymatgen
data_Ce2Al16Pt9
_symmetry_space_group_name_H-M   'P 1'
_cell_length_a   11.10361074
_cell_length_b   11.10389518
_cell_length_c   11.10386943
_cell_angle_alpha   158.44014790
_cell_angle_beta   114.92354466
_cell_angle_gamma   69.44156504
_symmetry_Int_Tables_number   1
_chemical_formula_structural   Ce2Al16Pt9
_chemical_formula_sum   'Ce2 Al16 Pt9'
_cell_volume   452.80525738
_cell_formula_units_Z   1
loop_
 _symmetry_equiv_pos_site_id
 _symmetry_equiv_pos_as_xyz
  1  'x, y, z'
loop_
 _atom_site_type_symbol
 _atom_site_label
 _atom_site_symmetry_multiplicity
 _atom_site_fract_x
 _atom_site_fract_y
 _atom_site_fract_z
 _atom_site_occupancy
  Ce  Ce0  1  0.22802698  0.22946626  0.00163769  1
  Ce  Ce1  1  0.77196538  0.77051231  -0.00164925  1
  Al  Al2  1  0.27420533  0.39232188  0.88139291  1
  Al  Al3  1  0.09223622  0.92104651  0.17158880  1
  Al  Al4  1  0.51134476  0.20432043  0.30792314  1
  Al  Al5  1  0.25050920  0.07879277  0.17100098  1
  Al  Al6  1  0.91387074  0.41393960  0.50010603  1
  Al  Al7  1  0.72579810  0.60767894  0.11862172  1
  Al  Al8  1  0.89641268  0.20423221  0.69291470  1
  Al  Al9  1  0.48864806  0.79569164  0.69208283  1
  Al  Al10  1  0.38585544  0.00020655  0.38606037  1
  Al  Al11  1  0.61413851  0.99979014  0.61393703  1
  Al  Al12  1  0.48905469  0.60743507  0.88166637  1
  Al  Al13  1  0.10359551  0.79577546  0.30710610  1
  Al  Al14  1  0.90778108  0.07895501  0.82842302  1
  Al  Al15  1  0.74948807  0.92120110  0.82897880  1
  Al  Al16  1  0.51092746  0.39256620  0.11832756  1
  Al  Al17  1  0.08613566  0.58605605  0.49986875  1
  Pt  Pt18  1  0.74962339  0.49993837  0.24955474  1
  Pt  Pt19  1  0.02635267  0.34056870  0.68626884  1
  Pt  Pt20  1  0.62372781  0.12401121  0.50029769  1
  Pt  Pt21  1  0.25038145  0.50008148  0.75045950  1
  Pt  Pt22  1  0.37625306  0.87598090  0.49970881  1
  Pt  Pt23  1  0.00000914  0.00000311  0.00000037  1
  Pt  Pt24  1  0.65428722  0.34068436  0.31430819  1
  Pt  Pt25  1  0.34569068  0.65931236  0.68565939  1
  Pt  Pt26  1  0.97367870  0.65943237  0.31375293  1
