# generated using pymatgen
data_Tb2InGe2
_symmetry_space_group_name_H-M   'P 1'
_cell_length_a   4.17560489
_cell_length_b   7.41149073
_cell_length_c   7.41149073
_cell_angle_alpha   90.00000000
_cell_angle_beta   90.00000000
_cell_angle_gamma   90.00000000
_symmetry_Int_Tables_number   1
_chemical_formula_structural   Tb2InGe2
_chemical_formula_sum   'Tb4 In2 Ge4'
_cell_volume   229.36679019
_cell_formula_units_Z   2
loop_
 _symmetry_equiv_pos_site_id
 _symmetry_equiv_pos_as_xyz
  1  'x, y, z'
loop_
 _atom_site_type_symbol
 _atom_site_label
 _atom_site_symmetry_multiplicity
 _atom_site_fract_x
 _atom_site_fract_y
 _atom_site_fract_z
 _atom_site_occupancy
  Tb  Tb0  1  0.50000000  0.82036402  0.32036402  1
  Tb  Tb1  1  0.50000000  0.17963598  0.67963598  1
  Tb  Tb2  1  0.50000000  0.32036402  0.17963598  1
  Tb  Tb3  1  0.50000000  0.67963598  0.82036402  1
  In  In4  1  -0.00000000  -0.00000000  0.00000000  1
  In  In5  1  -0.00000000  0.50000000  0.50000000  1
  Ge  Ge6  1  -0.00000000  0.88070019  0.61929981  1
  Ge  Ge7  1  0.00000000  0.11929981  0.38070019  1
  Ge  Ge8  1  -0.00000000  0.38070019  0.88070019  1
  Ge  Ge9  1  0.00000000  0.61929981  0.11929981  1
