# generated using pymatgen
data_SiO2
_symmetry_space_group_name_H-M   'P 1'
_cell_length_a   5.11216098
_cell_length_b   5.23999642
_cell_length_c   6.95523100
_cell_angle_alpha   72.83866862
_cell_angle_beta   75.08631718
_cell_angle_gamma   85.24015631
_symmetry_Int_Tables_number   1
_chemical_formula_structural   SiO2
_chemical_formula_sum   'Si4 O8'
_cell_volume   172.01787051
_cell_formula_units_Z   4
loop_
 _symmetry_equiv_pos_site_id
 _symmetry_equiv_pos_as_xyz
  1  'x, y, z'
loop_
 _atom_site_type_symbol
 _atom_site_label
 _atom_site_symmetry_multiplicity
 _atom_site_fract_x
 _atom_site_fract_y
 _atom_site_fract_z
 _atom_site_occupancy
  Si  Si0  1  0.39181063  0.72159281  0.59149022  1
  Si  Si1  1  0.43175566  0.63129615  0.05219811  1
  Si  Si2  1  0.18622216  0.27807683  0.43559081  1
  Si  Si3  1  0.86151485  0.69101204  0.25129344  1
  O  O4  1  0.44466694  0.63653069  0.81965024  1
  O  O5  1  0.17996856  0.97008500  0.56804829  1
  O  O6  1  0.27065749  0.46606562  0.55910064  1
  O  O7  1  0.71357933  0.73650914  0.06385242  1
  O  O8  1  0.67376930  0.82514537  0.42132288  1
  O  O9  1  0.16920759  0.80379479  0.14282524  1
  O  O10  1  0.89503803  0.37958786  0.38422098  1
  O  O11  1  0.39625849  0.32876671  0.20772673  1
