# generated using pymatgen
data_Np2Si4Tc3
_symmetry_space_group_name_H-M   'P 1'
_cell_length_a   8.09995615
_cell_length_b   5.64196470
_cell_length_c   6.80698838
_cell_angle_alpha   76.41346858
_cell_angle_beta   89.99931691
_cell_angle_gamma   90.00011465
_symmetry_Int_Tables_number   1
_chemical_formula_structural   Np2Si4Tc3
_chemical_formula_sum   'Np4 Si8 Tc6'
_cell_volume   302.37199571
_cell_formula_units_Z   2
loop_
 _symmetry_equiv_pos_site_id
 _symmetry_equiv_pos_as_xyz
  1  'x, y, z'
loop_
 _atom_site_type_symbol
 _atom_site_label
 _atom_site_symmetry_multiplicity
 _atom_site_fract_x
 _atom_site_fract_y
 _atom_site_fract_z
 _atom_site_occupancy
  Np  Np0  1  0.93643807  0.57424158  0.25206090  1
  Np  Np1  1  0.43648454  0.92575982  0.74796186  1
  Np  Np2  1  0.06354331  0.42575577  0.74794080  1
  Np  Np3  1  0.56353022  0.07425017  0.25203952  1
  Si  Si4  1  0.59088771  0.61627308  0.11999780  1
  Si  Si5  1  0.09090118  0.88370450  0.87999704  1
  Si  Si6  1  0.40910617  0.38371789  0.87999768  1
  Si  Si7  1  0.90910795  0.11627392  0.12000637  1
  Si  Si8  1  0.75173936  0.72214323  0.58431020  1
  Si  Si9  1  0.25174991  0.77787361  0.41568409  1
  Si  Si10  1  0.24826393  0.27786240  0.41567364  1
  Si  Si11  1  0.74824462  0.22213547  0.58429172  1
  Tc  Tc12  1  0.29251357  0.61345454  0.11444421  1
  Tc  Tc13  1  0.79247121  0.88656010  0.88558331  1
  Tc  Tc14  1  0.70749498  0.38652501  0.88561281  1
  Tc  Tc15  1  0.20752495  0.11344546  0.11446104  1
  Tc  Tc16  1  0.50000394  0.50001402  0.49996714  1
  Tc  Tc17  1  -0.00000564  0.00000943  0.49996988  1
