# generated using pymatgen
data_Al2CoCl8
_symmetry_space_group_name_H-M   'P 1'
_cell_length_a   9.41423269
_cell_length_b   9.41423269
_cell_length_c   11.50831012
_cell_angle_alpha   53.35126051
_cell_angle_beta   53.35126051
_cell_angle_gamma   49.97515184
_symmetry_Int_Tables_number   1
_chemical_formula_structural   Al2CoCl8
_chemical_formula_sum   'Al4 Co2 Cl16'
_cell_volume   587.76819578
_cell_formula_units_Z   2
loop_
 _symmetry_equiv_pos_site_id
 _symmetry_equiv_pos_as_xyz
  1  'x, y, z'
loop_
 _atom_site_type_symbol
 _atom_site_label
 _atom_site_symmetry_multiplicity
 _atom_site_fract_x
 _atom_site_fract_y
 _atom_site_fract_z
 _atom_site_occupancy
  Al  Al0  1  0.16422495  0.67250320  0.53067260  1
  Al  Al1  1  0.32749680  0.83577505  0.96932740  1
  Al  Al2  1  0.83577505  0.32749680  0.46932740  1
  Al  Al3  1  0.67250320  0.16422495  0.03067260  1
  Co  Co4  1  0.99015121  0.00984879  0.75000000  1
  Co  Co5  1  0.00984879  0.99015121  0.25000000  1
  Cl  Cl6  1  0.30583834  0.37485620  0.55798400  1
  Cl  Cl7  1  0.62514380  0.69416166  0.94201600  1
  Cl  Cl8  1  0.69416166  0.62514380  0.44201600  1
  Cl  Cl9  1  0.37485620  0.30583834  0.05798400  1
  Cl  Cl10  1  0.87350188  0.83622733  0.50957917  1
  Cl  Cl11  1  0.16377267  0.12649812  -0.00957917  1
  Cl  Cl12  1  0.12649812  0.16377267  0.49042083  1
  Cl  Cl13  1  0.83622733  0.87350188  0.00957917  1
  Cl  Cl14  1  0.13646394  0.69526310  0.71962341  1
  Cl  Cl15  1  0.30473690  0.86353606  0.78037659  1
  Cl  Cl16  1  0.86353606  0.30473690  0.28037659  1
  Cl  Cl17  1  0.69526310  0.13646394  0.21962341  1
  Cl  Cl18  1  0.29932600  0.84682298  0.30701218  1
  Cl  Cl19  1  0.15317702  0.70067400  0.19298782  1
  Cl  Cl20  1  0.70067400  0.15317702  0.69298782  1
  Cl  Cl21  1  0.84682298  0.29932600  0.80701218  1
