# generated using pymatgen
data_Y2InNi2
_symmetry_space_group_name_H-M   'P 1'
_cell_length_a   3.71883152
_cell_length_b   3.85468907
_cell_length_c   7.34004999
_cell_angle_alpha   105.22315155
_cell_angle_beta   90.00000000
_cell_angle_gamma   90.00000000
_symmetry_Int_Tables_number   1
_chemical_formula_structural   Y2InNi2
_chemical_formula_sum   'Y2 In1 Ni2'
_cell_volume   101.52707936
_cell_formula_units_Z   1
loop_
 _symmetry_equiv_pos_site_id
 _symmetry_equiv_pos_as_xyz
  1  'x, y, z'
loop_
 _atom_site_type_symbol
 _atom_site_label
 _atom_site_symmetry_multiplicity
 _atom_site_fract_x
 _atom_site_fract_y
 _atom_site_fract_z
 _atom_site_occupancy
  Y  Y0  1  0.50000000  0.63685860  0.27371720  1
  Y  Y1  1  0.50000000  0.36314140  0.72628280  1
  In  In2  1  0.00000000  -0.00000000  -0.00000000  1
  Ni  Ni3  1  0.00000000  0.20004352  0.40008503  1
  Ni  Ni4  1  -0.00000000  0.79995648  0.59991497  1
