# generated using pymatgen
data_EuCO3
_symmetry_space_group_name_H-M   'P 1'
_cell_length_a   5.10965115
_cell_length_b   5.94351265
_cell_length_c   8.41489239
_cell_angle_alpha   90.00000000
_cell_angle_beta   89.99997449
_cell_angle_gamma   90.00000000
_symmetry_Int_Tables_number   1
_chemical_formula_structural   EuCO3
_chemical_formula_sum   'Eu4 C4 O12'
_cell_volume   255.55419158
_cell_formula_units_Z   4
loop_
 _symmetry_equiv_pos_site_id
 _symmetry_equiv_pos_as_xyz
  1  'x, y, z'
loop_
 _atom_site_type_symbol
 _atom_site_label
 _atom_site_symmetry_multiplicity
 _atom_site_fract_x
 _atom_site_fract_y
 _atom_site_fract_z
 _atom_site_occupancy
  Eu  Eu0  1  0.25000000  0.25613248  0.91606501  1
  Eu  Eu1  1  0.75000000  0.24386752  0.41606501  1
  Eu  Eu2  1  0.75000000  0.74386752  0.08393499  1
  Eu  Eu3  1  0.25000000  0.75613248  0.58393499  1
  C  C4  1  0.25000000  0.41362482  0.25887829  1
  C  C5  1  0.75000000  0.58637518  0.74112171  1
  C  C6  1  0.75000000  0.08637518  0.75887829  1
  C  C7  1  0.25000000  0.91362482  0.24112171  1
  O  O8  1  0.96912428  0.08664782  0.68166130  1
  O  O9  1  0.46912428  0.41335218  0.18166130  1
  O  O10  1  0.46912428  0.91335218  0.31833870  1
  O  O11  1  0.75000000  0.59720549  0.58783772  1
  O  O12  1  0.75000000  0.09720549  0.91216228  1
  O  O13  1  0.53087572  0.08664782  0.68166130  1
  O  O14  1  0.25000000  0.90279451  0.08783772  1
  O  O15  1  0.25000000  0.40279451  0.41216228  1
  O  O16  1  0.53087572  0.58664782  0.81833870  1
  O  O17  1  0.96912428  0.58664782  0.81833870  1
  O  O18  1  0.03087572  0.41335218  0.18166130  1
  O  O19  1  0.03087572  0.91335218  0.31833870  1
