# generated using pymatgen
data_BaZr2F10
_symmetry_space_group_name_H-M   'P 1'
_cell_length_a   8.36889319
_cell_length_b   8.36889319
_cell_length_c   8.74717896
_cell_angle_alpha   83.95638410
_cell_angle_beta   83.95638410
_cell_angle_gamma   137.21583333
_symmetry_Int_Tables_number   1
_chemical_formula_structural   BaZr2F10
_chemical_formula_sum   'Ba2 Zr4 F20'
_cell_volume   398.41452814
_cell_formula_units_Z   2
loop_
 _symmetry_equiv_pos_site_id
 _symmetry_equiv_pos_as_xyz
  1  'x, y, z'
loop_
 _atom_site_type_symbol
 _atom_site_label
 _atom_site_symmetry_multiplicity
 _atom_site_fract_x
 _atom_site_fract_y
 _atom_site_fract_z
 _atom_site_occupancy
  Ba  Ba0  1  0.42965974  0.57034026  0.75000000  1
  Ba  Ba1  1  0.57034026  0.42965974  0.25000000  1
  Zr  Zr2  1  0.34190761  0.03112823  0.90161398  1
  Zr  Zr3  1  0.96887177  0.65809239  0.59838602  1
  Zr  Zr4  1  0.65809239  0.96887177  0.09838602  1
  Zr  Zr5  1  0.03112823  0.34190761  0.40161398  1
  F  F6  1  0.14303811  0.55544868  0.57065368  1
  F  F7  1  0.44455132  0.85696189  0.92934632  1
  F  F8  1  0.85696189  0.44455132  0.42934632  1
  F  F9  1  0.55544868  0.14303811  0.07065368  1
  F  F10  1  0.70085284  0.29914716  0.75000000  1
  F  F11  1  0.29914716  0.70085284  0.25000000  1
  F  F12  1  0.20312082  0.79687918  0.75000000  1
  F  F13  1  0.79687918  0.20312082  0.25000000  1
  F  F14  1  0.97035977  0.25022420  0.93431794  1
  F  F15  1  0.74977580  0.02964023  0.56568206  1
  F  F16  1  0.02964023  0.74977580  0.06568206  1
  F  F17  1  0.25022420  0.97035977  0.43431794  1
  F  F18  1  0.25223685  0.36062100  0.49632899  1
  F  F19  1  0.63937900  0.74776315  0.00367101  1
  F  F20  1  0.74776315  0.63937900  0.50367101  1
  F  F21  1  0.36062100  0.25223685  0.99632899  1
  F  F22  1  0.30646728  0.17055147  0.72978735  1
  F  F23  1  0.82944853  0.69353272  0.77021265  1
  F  F24  1  0.69353272  0.82944853  0.27021265  1
  F  F25  1  0.17055147  0.30646728  0.22978735  1
