# generated using pymatgen
data_Na2MnO2
_symmetry_space_group_name_H-M   'P 1'
_cell_length_a   6.08424265
_cell_length_b   8.57745375
_cell_length_c   8.57745958
_cell_angle_alpha   86.89090410
_cell_angle_beta   69.58521292
_cell_angle_gamma   69.58505080
_symmetry_Int_Tables_number   1
_chemical_formula_structural   Na2MnO2
_chemical_formula_sum   'Na12 Mn6 O12'
_cell_volume   392.00941189
_cell_formula_units_Z   6
loop_
 _symmetry_equiv_pos_site_id
 _symmetry_equiv_pos_as_xyz
  1  'x, y, z'
loop_
 _atom_site_type_symbol
 _atom_site_label
 _atom_site_symmetry_multiplicity
 _atom_site_fract_x
 _atom_site_fract_y
 _atom_site_fract_z
 _atom_site_occupancy
  Na  Na0  1  0.24999970  0.93795348  0.06204800  1
  Na  Na1  1  0.75000027  0.06204800  0.93795234  1
  Na  Na2  1  0.74999957  0.80092960  0.19907099  1
  Na  Na3  1  0.25000221  0.19907211  0.80092824  1
  Na  Na4  1  0.73641428  0.40228843  -0.00403477  1
  Na  Na5  1  0.76358613  0.00403521  0.59771152  1
  Na  Na6  1  0.26358278  0.59771225  0.00403635  1
  Na  Na7  1  0.23641607  -0.00403638  0.40228840  1
  Na  Na8  1  0.22807453  0.32361508  0.46884806  1
  Na  Na9  1  0.77192614  0.67638503  0.53115228  1
  Na  Na10  1  0.72807140  0.46884929  0.32361432  1
  Na  Na11  1  0.27192742  0.53115235  0.67638737  1
  Mn  Mn12  1  0.25000189  0.67906319  0.32093026  1
  Mn  Mn13  1  0.25682271  0.28922646  0.13192170  1
  Mn  Mn14  1  0.24317702  0.86807676  0.71077390  1
  Mn  Mn15  1  0.75000023  0.32093236  0.67906849  1
  Mn  Mn16  1  0.74317526  0.71077419  0.86807836  1
  Mn  Mn17  1  0.75682548  0.13192107  0.28922633  1
  O  O18  1  0.46844562  0.32687743  0.89918460  1
  O  O19  1  0.03155734  0.10081511  0.67312369  1
  O  O20  1  0.53155621  0.67312241  0.10081488  1
  O  O21  1  0.96844675  0.89918434  0.32687614  1
  O  O22  1  0.51293210  0.89361146  0.78039367  1
  O  O23  1  0.98706635  0.21960761  0.10638893  1
  O  O24  1  0.01293188  0.78039412  0.89361217  1
  O  O25  1  0.48707003  0.10638920  0.21960587  1
  O  O26  1  0.59589244  0.27992091  0.51623421  1
  O  O27  1  0.90410684  0.48376706  0.72008062  1
  O  O28  1  0.09589165  0.51623169  0.27991905  1
  O  O29  1  0.40410267  0.72008018  0.48376503  1
