# generated using pymatgen
data_Cu(BiO2)2
_symmetry_space_group_name_H-M   'P 1'
_cell_length_a   6.88666148
_cell_length_b   6.88666148
_cell_length_c   6.88666148
_cell_angle_alpha   99.60905359
_cell_angle_beta   99.60905359
_cell_angle_gamma   131.77068048
_symmetry_Int_Tables_number   1
_chemical_formula_structural   Cu(BiO2)2
_chemical_formula_sum   'Cu2 Bi4 O8'
_cell_volume   222.33131793
_cell_formula_units_Z   2
loop_
 _symmetry_equiv_pos_site_id
 _symmetry_equiv_pos_as_xyz
  1  'x, y, z'
loop_
 _atom_site_type_symbol
 _atom_site_label
 _atom_site_symmetry_multiplicity
 _atom_site_fract_x
 _atom_site_fract_y
 _atom_site_fract_z
 _atom_site_occupancy
  Cu  Cu0  1  0.68028200  0.68028200  0.00000000  1
  Cu  Cu1  1  0.18028200  0.18028200  0.00000000  1
  Bi  Bi2  1  0.15493200  0.31376600  0.50000000  1
  Bi  Bi3  1  0.65493200  0.15493200  0.84116600  1
  Bi  Bi4  1  0.31376600  0.81376600  0.15883400  1
  Bi  Bi5  1  0.81376600  0.65493200  0.50000000  1
  O  O6  1  0.85616000  0.55986200  0.08855100  1
  O  O7  1  0.26760800  0.97131000  0.91144900  1
  O  O8  1  0.47131000  0.76760800  0.91144900  1
  O  O9  1  0.76760800  0.85616000  0.29629800  1
  O  O10  1  0.35616000  0.26760800  0.29629800  1
  O  O11  1  0.05986200  0.35616000  0.08855100  1
  O  O12  1  0.55986200  0.47131000  0.70370200  1
  O  O13  1  0.97131000  0.05986200  0.70370200  1
