# generated using pymatgen
data_BaAlF5
_symmetry_space_group_name_H-M   'P 1'
_cell_length_a   9.68968172
_cell_length_b   5.25617439
_cell_length_c   7.38742193
_cell_angle_alpha   88.95578452
_cell_angle_beta   90.00000000
_cell_angle_gamma   90.00000000
_symmetry_Int_Tables_number   1
_chemical_formula_structural   BaAlF5
_chemical_formula_sum   'Ba4 Al4 F20'
_cell_volume   376.18376824
_cell_formula_units_Z   4
loop_
 _symmetry_equiv_pos_site_id
 _symmetry_equiv_pos_as_xyz
  1  'x, y, z'
loop_
 _atom_site_type_symbol
 _atom_site_label
 _atom_site_symmetry_multiplicity
 _atom_site_fract_x
 _atom_site_fract_y
 _atom_site_fract_z
 _atom_site_occupancy
  Ba  Ba0  1  0.65543072  0.48803461  0.36043985  1
  Ba  Ba1  1  0.15543072  0.51196539  0.63956015  1
  Ba  Ba2  1  0.00098940  0.01355708  0.11326119  1
  Ba  Ba3  1  0.50098940  0.98644292  0.88673881  1
  Al  Al4  1  0.26519056  0.52243258  0.13111449  1
  Al  Al5  1  0.76519056  0.47756742  0.86888551  1
  Al  Al6  1  0.36940823  0.01487108  0.42423113  1
  Al  Al7  1  0.86940823  0.98512892  0.57576887  1
  F  F8  1  0.96534781  0.76759077  0.44331104  1
  F  F9  1  0.45045113  0.75030733  0.53322924  1
  F  F10  1  0.95045113  0.24969267  0.46677076  1
  F  F11  1  0.26302437  0.27100372  0.97097811  1
  F  F12  1  0.48675982  0.04139449  0.24252518  1
  F  F13  1  0.08401969  0.50986490  0.16006780  1
  F  F14  1  0.75651317  0.20585068  0.70330309  1
  F  F15  1  0.27053307  0.28849311  0.32267162  1
  F  F16  1  0.98675982  0.95860551  0.75747482  1
  F  F17  1  0.24044781  0.01144649  0.59756406  1
  F  F18  1  0.58401969  0.49013510  0.83993220  1
  F  F19  1  0.46534781  0.23240923  0.55668896  1
  F  F20  1  0.94523569  0.44729813  0.86260911  1
  F  F21  1  0.74904955  0.24960490  0.05072713  1
  F  F22  1  0.74044781  0.98855351  0.40243594  1
  F  F23  1  0.25651317  0.79414932  0.29669691  1
  F  F24  1  0.76302437  0.72899628  0.02902189  1
  F  F25  1  0.24904955  0.75039510  0.94927287  1
  F  F26  1  0.77053307  0.71150689  0.67732838  1
  F  F27  1  0.44523569  0.55270187  0.13739089  1
