# generated using pymatgen
data_Ca(AsRu)2
_symmetry_space_group_name_H-M   'P 1'
_cell_length_a   4.18150672
_cell_length_b   4.18150644
_cell_length_c   5.98572031
_cell_angle_alpha   110.44390728
_cell_angle_beta   110.44389814
_cell_angle_gamma   90.00001741
_symmetry_Int_Tables_number   1
_chemical_formula_structural   Ca(AsRu)2
_chemical_formula_sum   'Ca1 As2 Ru2'
_cell_volume   90.99987579
_cell_formula_units_Z   1
loop_
 _symmetry_equiv_pos_site_id
 _symmetry_equiv_pos_as_xyz
  1  'x, y, z'
loop_
 _atom_site_type_symbol
 _atom_site_label
 _atom_site_symmetry_multiplicity
 _atom_site_fract_x
 _atom_site_fract_y
 _atom_site_fract_z
 _atom_site_occupancy
  Ca  Ca0  1  0.00000000  -0.00000000  -0.00000000  1
  As  As1  1  0.36593935  0.36593935  0.73188070  1
  As  As2  1  0.63406065  0.63406065  0.26811930  1
  Ru  Ru3  1  0.75000000  0.25000000  0.50000000  1
  Ru  Ru4  1  0.25000000  0.75000000  0.50000000  1
