# generated using pymatgen
data_Rb2V4O9
_symmetry_space_group_name_H-M   'P 1'
_cell_length_a   5.65315101
_cell_length_b   5.65315101
_cell_length_c   14.86385126
_cell_angle_alpha   90.00000000
_cell_angle_beta   90.00000000
_cell_angle_gamma   90.00000000
_symmetry_Int_Tables_number   1
_chemical_formula_structural   Rb2V4O9
_chemical_formula_sum   'Rb4 V8 O18'
_cell_volume   475.02068786
_cell_formula_units_Z   2
loop_
 _symmetry_equiv_pos_site_id
 _symmetry_equiv_pos_as_xyz
  1  'x, y, z'
loop_
 _atom_site_type_symbol
 _atom_site_label
 _atom_site_symmetry_multiplicity
 _atom_site_fract_x
 _atom_site_fract_y
 _atom_site_fract_z
 _atom_site_occupancy
  Rb  Rb0  1  0.27074653  0.24754616  0.50000000  1
  Rb  Rb1  1  0.75245384  0.27074653  -0.00000000  1
  Rb  Rb2  1  0.24754616  0.72925347  -0.00000000  1
  Rb  Rb3  1  0.72925347  0.75245384  0.50000000  1
  V  V4  1  0.28588807  0.15071736  0.19961003  1
  V  V5  1  0.84928264  0.28588807  0.69961003  1
  V  V6  1  0.15071736  0.71411193  0.69961003  1
  V  V7  1  0.71411193  0.84928264  0.19961003  1
  V  V8  1  0.71411193  0.84928264  0.80038997  1
  V  V9  1  0.15071736  0.71411193  0.30038997  1
  V  V10  1  0.84928264  0.28588807  0.30038997  1
  V  V11  1  0.28588807  0.15071736  0.80038997  1
  O  O12  1  0.00000000  0.00000000  0.25000000  1
  O  O13  1  0.00000000  0.00000000  0.75000000  1
  O  O14  1  0.22323168  0.23521078  0.09651036  1
  O  O15  1  0.76478922  0.22323168  0.59651036  1
  O  O16  1  0.23521078  0.77676832  0.59651036  1
  O  O17  1  0.77676832  0.76478922  0.09651036  1
  O  O18  1  0.77676832  0.76478922  0.90348964  1
  O  O19  1  0.23521078  0.77676832  0.40348964  1
  O  O20  1  0.76478922  0.22323168  0.40348964  1
  O  O21  1  0.22323168  0.23521078  0.90348964  1
  O  O22  1  0.18408715  0.37768222  0.28876120  1
  O  O23  1  0.62231778  0.18408715  0.78876120  1
  O  O24  1  0.37768222  0.81591285  0.78876120  1
  O  O25  1  0.81591285  0.62231778  0.28876120  1
  O  O26  1  0.81591285  0.62231778  0.71123880  1
  O  O27  1  0.37768222  0.81591285  0.21123880  1
  O  O28  1  0.62231778  0.18408715  0.21123880  1
  O  O29  1  0.18408715  0.37768222  0.71123880  1
