# generated using pymatgen
data_Th2P2O9
_symmetry_space_group_name_H-M   'P 1'
_cell_length_a   5.86227185
_cell_length_b   5.86227185
_cell_length_c   12.91094078
_cell_angle_alpha   90.00000000
_cell_angle_beta   90.00000000
_cell_angle_gamma   104.15867643
_symmetry_Int_Tables_number   1
_chemical_formula_structural   Th2P2O9
_chemical_formula_sum   'Th4 P4 O18'
_cell_volume   430.22165592
_cell_formula_units_Z   2
loop_
 _symmetry_equiv_pos_site_id
 _symmetry_equiv_pos_as_xyz
  1  'x, y, z'
loop_
 _atom_site_type_symbol
 _atom_site_label
 _atom_site_symmetry_multiplicity
 _atom_site_fract_x
 _atom_site_fract_y
 _atom_site_fract_z
 _atom_site_occupancy
  Th  Th0  1  0.29235058  0.70764942  0.57272868  1
  Th  Th1  1  0.70764942  0.29235058  0.42727132  1
  Th  Th2  1  0.20764942  0.79235058  0.07272868  1
  Th  Th3  1  0.79235058  0.20764942  0.92727132  1
  P  P4  1  0.38905461  0.61094539  0.85936777  1
  P  P5  1  0.11094539  0.88905461  0.35936777  1
  P  P6  1  0.61094539  0.38905461  0.14063223  1
  P  P7  1  0.88905461  0.11094539  0.64063223  1
  O  O8  1  0.05123621  0.94876379  0.62325461  1
  O  O9  1  0.98426967  0.34986853  0.58443968  1
  O  O10  1  0.14633873  0.85366127  0.24490575  1
  O  O11  1  0.48426967  0.84986853  0.91556032  1
  O  O12  1  0.65013147  0.01573033  0.58443968  1
  O  O13  1  0.44876379  0.55123621  0.12325461  1
  O  O14  1  0.84986853  0.48426967  0.08443968  1
  O  O15  1  0.64633873  0.35366127  0.25509425  1
  O  O16  1  0.94876379  0.05123621  0.37674539  1
  O  O17  1  0.34986853  0.98426967  0.41556032  1
  O  O18  1  0.35366127  0.64633873  0.74490575  1
  O  O19  1  0.51573033  0.15013147  0.08443968  1
  O  O20  1  0.55123621  0.44876379  0.87674539  1
  O  O21  1  0.50000000  0.50000000  0.50000000  1
  O  O22  1  0.85366127  0.14633873  0.75509425  1
  O  O23  1  0.15013147  0.51573033  0.91556032  1
  O  O24  1  0.01573033  0.65013147  0.41556032  1
  O  O25  1  -0.00000000  -0.00000000  -0.00000000  1
