# generated using pymatgen
data_DyGa3Ni2
_symmetry_space_group_name_H-M   'P 1'
_cell_length_a   8.90727622
_cell_length_b   8.90727677
_cell_length_c   4.02433261
_cell_angle_alpha   90.00000000
_cell_angle_beta   90.00000000
_cell_angle_gamma   119.99999796
_symmetry_Int_Tables_number   1
_chemical_formula_structural   DyGa3Ni2
_chemical_formula_sum   'Dy3 Ga9 Ni6'
_cell_volume   276.51224981
_cell_formula_units_Z   3
loop_
 _symmetry_equiv_pos_site_id
 _symmetry_equiv_pos_as_xyz
  1  'x, y, z'
loop_
 _atom_site_type_symbol
 _atom_site_label
 _atom_site_symmetry_multiplicity
 _atom_site_fract_x
 _atom_site_fract_y
 _atom_site_fract_z
 _atom_site_occupancy
  Dy  Dy0  1  0.33333300  0.66666700  0.00000000  1
  Dy  Dy1  1  0.66666700  0.33333300  0.00000000  1
  Dy  Dy2  1  0.00000000  -0.00000000  0.50000000  1
  Ga  Ga3  1  0.29312408  -0.00000000  -0.00000000  1
  Ga  Ga4  1  0.29312408  0.29312408  -0.00000000  1
  Ga  Ga5  1  0.00000000  0.70687592  -0.00000000  1
  Ga  Ga6  1  -0.00000000  0.29312408  0.00000000  1
  Ga  Ga7  1  0.70687592  0.70687592  0.00000000  1
  Ga  Ga8  1  0.70687592  -0.00000000  0.00000000  1
  Ga  Ga9  1  0.50000000  -0.00000000  0.50000000  1
  Ga  Ga10  1  0.50000000  0.50000000  0.50000000  1
  Ga  Ga11  1  0.00000000  0.50000000  0.50000000  1
  Ni  Ni12  1  0.18267011  0.36534122  0.50000000  1
  Ni  Ni13  1  0.81732989  0.18267011  0.50000000  1
  Ni  Ni14  1  0.36534122  0.18267011  0.50000000  1
  Ni  Ni15  1  0.63465878  0.81732989  0.50000000  1
  Ni  Ni16  1  0.18267011  0.81732989  0.50000000  1
  Ni  Ni17  1  0.81732989  0.63465878  0.50000000  1
