# generated using pymatgen
data_Sm(SiOs)2
_symmetry_space_group_name_H-M   'P 1'
_cell_length_a   4.19133075
_cell_length_b   4.19133018
_cell_length_c   5.70106884
_cell_angle_alpha   111.56715871
_cell_angle_beta   111.56715515
_cell_angle_gamma   89.99999463
_symmetry_Int_Tables_number   1
_chemical_formula_structural   Sm(SiOs)2
_chemical_formula_sum   'Sm1 Si2 Os2'
_cell_volume   85.55551844
_cell_formula_units_Z   1
loop_
 _symmetry_equiv_pos_site_id
 _symmetry_equiv_pos_as_xyz
  1  'x, y, z'
loop_
 _atom_site_type_symbol
 _atom_site_label
 _atom_site_symmetry_multiplicity
 _atom_site_fract_x
 _atom_site_fract_y
 _atom_site_fract_z
 _atom_site_occupancy
  Sm  Sm0  1  -0.00000000  0.00000000  0.00000000  1
  Si  Si1  1  0.36771574  0.36771574  0.73543148  1
  Si  Si2  1  0.63228426  0.63228426  0.26456852  1
  Os  Os3  1  0.75000000  0.25000000  0.50000000  1
  Os  Os4  1  0.25000000  0.75000000  0.50000000  1
