# generated using pymatgen
data_SrHg2
_symmetry_space_group_name_H-M   'P 1'
_cell_length_a   5.02226187
_cell_length_b   6.39723656
_cell_length_c   6.39723724
_cell_angle_alpha   75.98325239
_cell_angle_beta   66.88775228
_cell_angle_gamma   66.88775846
_symmetry_Int_Tables_number   1
_chemical_formula_structural   SrHg2
_chemical_formula_sum   'Sr2 Hg4'
_cell_volume   172.91899815
_cell_formula_units_Z   2
loop_
 _symmetry_equiv_pos_site_id
 _symmetry_equiv_pos_as_xyz
  1  'x, y, z'
loop_
 _atom_site_type_symbol
 _atom_site_label
 _atom_site_symmetry_multiplicity
 _atom_site_fract_x
 _atom_site_fract_y
 _atom_site_fract_z
 _atom_site_occupancy
  Sr  Sr0  1  0.48897069  0.26102931  0.76102931  1
  Sr  Sr1  1  0.51102931  0.73897069  0.23897069  1
  Hg  Hg2  1  0.83388795  0.68130754  0.65091256  1
  Hg  Hg3  1  0.16611205  0.84908744  0.81869246  1
  Hg  Hg4  1  0.83388795  0.15091256  0.18130854  1
  Hg  Hg5  1  0.16611205  0.31869246  0.34908744  1
