# generated using pymatgen
data_La3Re2O9
_symmetry_space_group_name_H-M   'P 1'
_cell_length_a   5.67660475
_cell_length_b   6.87732145
_cell_length_c   11.16478461
_cell_angle_alpha   77.56273031
_cell_angle_beta   75.61641397
_cell_angle_gamma   69.14171336
_symmetry_Int_Tables_number   1
_chemical_formula_structural   La3Re2O9
_chemical_formula_sum   'La6 Re4 O18'
_cell_volume   390.64101922
_cell_formula_units_Z   2
loop_
 _symmetry_equiv_pos_site_id
 _symmetry_equiv_pos_as_xyz
  1  'x, y, z'
loop_
 _atom_site_type_symbol
 _atom_site_label
 _atom_site_symmetry_multiplicity
 _atom_site_fract_x
 _atom_site_fract_y
 _atom_site_fract_z
 _atom_site_occupancy
  La  La0  1  0.71770239  0.90573507  0.61911973  1
  La  La1  1  0.28229761  0.09426493  0.38088027  1
  La  La2  1  0.00410955  0.72236760  0.26931753  1
  La  La3  1  0.99589045  0.27763240  0.73068247  1
  La  La4  1  0.22485928  0.66278830  0.88281017  1
  La  La5  1  0.77514072  0.33721170  0.11718983  1
  Re  Re6  1  0.48986847  0.11076569  0.90913798  1
  Re  Re7  1  0.51013153  0.88923431  0.09086202  1
  Re  Re8  1  0.35671020  0.62178156  0.57054047  1
  Re  Re9  1  0.64328980  0.37821844  0.42945953  1
  O  O10  1  0.37348060  0.32024041  0.57760330  1
  O  O11  1  0.62651940  0.67975959  0.42239670  1
  O  O12  1  0.85419854  0.68831697  0.06455748  1
  O  O13  1  0.14580146  0.31168303  0.93544252  1
  O  O14  1  0.30259105  0.91706443  0.59012217  1
  O  O15  1  0.69740895  0.08293557  0.40987783  1
  O  O16  1  0.64059246  0.02091322  0.18427837  1
  O  O17  1  0.35940754  0.97908678  0.81572163  1
  O  O18  1  0.06630131  0.61506074  0.71104218  1
  O  O19  1  0.93369869  0.38493926  0.28895782  1
  O  O20  1  0.41455735  0.43891676  0.31397675  1
  O  O21  1  0.58544265  0.56108324  0.68602325  1
  O  O22  1  0.82090776  0.99071181  0.81063832  1
  O  O23  1  0.17909224  0.00928819  0.18936168  1
  O  O24  1  0.11466369  0.75138993  0.46095303  1
  O  O25  1  0.88533631  0.24861007  0.53904697  1
  O  O26  1  0.61183013  0.32936358  0.92689824  1
  O  O27  1  0.38816987  0.67063642  0.07310176  1
