# generated using pymatgen
data_C
_symmetry_space_group_name_H-M   'P 1'
_cell_length_a   11.15413994
_cell_length_b   11.15413966
_cell_length_c   11.15414069
_cell_angle_alpha   12.64275157
_cell_angle_beta   12.64275196
_cell_angle_gamma   12.64275950
_symmetry_Int_Tables_number   1
_chemical_formula_structural   C
_chemical_formula_sum   C4
_cell_volume   57.80634417
_cell_formula_units_Z   4
loop_
 _symmetry_equiv_pos_site_id
 _symmetry_equiv_pos_as_xyz
  1  'x, y, z'
loop_
 _atom_site_type_symbol
 _atom_site_label
 _atom_site_symmetry_multiplicity
 _atom_site_fract_x
 _atom_site_fract_y
 _atom_site_fract_z
 _atom_site_occupancy
  C  C0  1  0.94853918  0.94853918  0.94853918  1
  C  C1  1  0.28187188  0.28187188  0.28187188  1
  C  C2  1  0.71812812  0.71812812  0.71812812  1
  C  C3  1  0.05146082  0.05146082  0.05146082  1
