# generated using pymatgen
data_Na3OsO5
_symmetry_space_group_name_H-M   'P 1'
_cell_length_a   5.50457466
_cell_length_b   5.50453321
_cell_length_c   13.36012050
_cell_angle_alpha   90.00067267
_cell_angle_beta   90.00012937
_cell_angle_gamma   120.00383471
_symmetry_Int_Tables_number   1
_chemical_formula_structural   Na3OsO5
_chemical_formula_sum   'Na9 Os3 O15'
_cell_volume   350.56494549
_cell_formula_units_Z   3
loop_
 _symmetry_equiv_pos_site_id
 _symmetry_equiv_pos_as_xyz
  1  'x, y, z'
loop_
 _atom_site_type_symbol
 _atom_site_label
 _atom_site_symmetry_multiplicity
 _atom_site_fract_x
 _atom_site_fract_y
 _atom_site_fract_z
 _atom_site_occupancy
  Na  Na0  1  0.90632392  0.28995819  0.91429614  1
  Na  Na1  1  0.71004498  0.61636108  0.24765158  1
  Na  Na2  1  0.09362947  0.38357384  0.41903392  1
  Na  Na3  1  0.38357920  0.09363261  0.58097358  1
  Na  Na4  1  0.72754174  0.72750906  0.50001616  1
  Na  Na5  1  0.61636825  0.71006028  0.75236028  1
  Na  Na6  1  0.27250054  -0.00000470  0.83333557  1
  Na  Na7  1  0.00002683  0.27250891  0.16664961  1
  Na  Na8  1  0.28997165  0.90633063  0.08568364  1
  Os  Os9  1  0.39007326  0.00001271  0.33334803  1
  Os  Os10  1  0.00000120  0.39007697  0.66666995  1
  Os  Os11  1  0.60993717  0.60993888  -0.00001101  1
  O  O12  1  0.48955830  0.83160289  0.93507239  1
  O  O13  1  0.00001221  0.71118478  0.66666700  1
  O  O14  1  0.51047014  0.34205947  0.39826079  1
  O  O15  1  0.65793282  0.16842700  0.73158411  1
  O  O16  1  0.83735424  0.16026807  0.55884542  1
  O  O17  1  0.16262836  0.32291942  0.77448980  1
  O  O18  1  0.83160290  0.48955420  0.06490716  1
  O  O19  1  0.83972394  0.67708847  0.89216346  1
  O  O20  1  0.32292106  0.16263878  0.22551230  1
  O  O21  1  0.16025667  0.83734903  0.44116362  1
  O  O22  1  0.71117500  0.00000947  0.33334372  1
  O  O23  1  0.16840264  0.65791714  0.26842180  1
  O  O24  1  0.34206387  0.51048828  0.60175142  1
  O  O25  1  0.28881865  0.28881658  0.99999051  1
  O  O26  1  0.67707999  0.83971895  0.10782105  1
