# generated using pymatgen
data_NaH2ClO5
_symmetry_space_group_name_H-M   'P 1'
_cell_length_a   8.14138561
_cell_length_b   8.14138561
_cell_length_c   10.82950994
_cell_angle_alpha   70.90688044
_cell_angle_beta   70.90688044
_cell_angle_gamma   39.13594091
_symmetry_Int_Tables_number   1
_chemical_formula_structural   NaH2ClO5
_chemical_formula_sum   'Na4 H8 Cl4 O20'
_cell_volume   424.87440019
_cell_formula_units_Z   4
loop_
 _symmetry_equiv_pos_site_id
 _symmetry_equiv_pos_as_xyz
  1  'x, y, z'
loop_
 _atom_site_type_symbol
 _atom_site_label
 _atom_site_symmetry_multiplicity
 _atom_site_fract_x
 _atom_site_fract_y
 _atom_site_fract_z
 _atom_site_occupancy
  Na  Na0  1  0.00000000  0.50000000  0.50000000  1
  Na  Na1  1  0.50000000  0.00000000  0.00000000  1
  Na  Na2  1  0.54946476  0.45053524  0.75000000  1
  Na  Na3  1  0.45053524  0.54946476  0.25000000  1
  H  H4  1  0.33117924  0.45473614  0.02152503  1
  H  H5  1  0.54526386  0.66882076  0.47847497  1
  H  H6  1  0.66882076  0.54526386  0.97847497  1
  H  H7  1  0.45473614  0.33117924  0.52152503  1
  H  H8  1  0.16442776  0.54546540  0.92387878  1
  H  H9  1  0.45453460  0.83557224  0.57612122  1
  H  H10  1  0.83557224  0.45453460  0.07612122  1
  H  H11  1  0.54546540  0.16442776  0.42387878  1
  Cl  Cl12  1  0.16180744  0.09300456  0.80266750  1
  Cl  Cl13  1  0.90699544  0.83819256  0.69733250  1
  Cl  Cl14  1  0.83819256  0.90699544  0.19733250  1
  Cl  Cl15  1  0.09300456  0.16180744  0.30266750  1
  O  O16  1  0.18354009  0.13737470  0.65971164  1
  O  O17  1  0.86262530  0.81645991  0.84028836  1
  O  O18  1  0.81645991  0.86262530  0.34028836  1
  O  O19  1  0.13737470  0.18354009  0.15971164  1
  O  O20  1  0.23231408  0.17794212  0.84764994  1
  O  O21  1  0.82205788  0.76768592  0.65235006  1
  O  O22  1  0.76768592  0.82205788  0.15235006  1
  O  O23  1  0.17794212  0.23231408  0.34764994  1
  O  O24  1  0.89388995  0.24214356  0.85494382  1
  O  O25  1  0.75785644  0.10611005  0.64505618  1
  O  O26  1  0.10611005  0.75785644  0.14505618  1
  O  O27  1  0.24214356  0.89388995  0.35494382  1
  O  O28  1  0.33398773  0.81764061  0.84439075  1
  O  O29  1  0.18235939  0.66601227  0.65560925  1
  O  O30  1  0.66601227  0.18235939  0.15560925  1
  O  O31  1  0.81764061  0.33398773  0.34439075  1
  O  O32  1  0.34232565  0.40367910  0.94730242  1
  O  O33  1  0.59632090  0.65767435  0.55269758  1
  O  O34  1  0.65767435  0.59632090  0.05269758  1
  O  O35  1  0.40367910  0.34232565  0.44730242  1
