# generated using pymatgen
data_Na2Ca2(CO3)3
_symmetry_space_group_name_H-M   'P 1'
_cell_length_a   6.53571390
_cell_length_b   6.53571390
_cell_length_c   4.94680350
_cell_angle_alpha   90.00000000
_cell_angle_beta   90.00000000
_cell_angle_gamma   114.50665370
_symmetry_Int_Tables_number   1
_chemical_formula_structural   Na2Ca2(CO3)3
_chemical_formula_sum   'Na2 Ca2 C3 O9'
_cell_volume   192.26961025
_cell_formula_units_Z   1
loop_
 _symmetry_equiv_pos_site_id
 _symmetry_equiv_pos_as_xyz
  1  'x, y, z'
loop_
 _atom_site_type_symbol
 _atom_site_label
 _atom_site_symmetry_multiplicity
 _atom_site_fract_x
 _atom_site_fract_y
 _atom_site_fract_z
 _atom_site_occupancy
  Na  Na0  1  0.07367528  0.07367528  0.00000000  1
  Na  Na1  1  0.38659214  0.38659214  0.50000000  1
  Ca  Ca2  1  0.78749016  0.22016679  0.50000000  1
  Ca  Ca3  1  0.22016679  0.78749016  0.50000000  1
  C  C4  1  0.12540766  0.53417311  0.00000000  1
  C  C5  1  0.53417311  0.12540766  0.00000000  1
  C  C6  1  0.77429132  0.77429132  0.50000000  1
  O  O7  1  0.58472889  0.78926086  0.50000000  1
  O  O8  1  0.78926086  0.58472889  0.50000000  1
  O  O9  1  0.12025462  0.72837013  0.00000000  1
  O  O10  1  0.95996243  0.95996243  0.50000000  1
  O  O11  1  0.72837013  0.12025462  0.00000000  1
  O  O12  1  0.13117087  0.43859144  0.77294791  1
  O  O13  1  0.43859144  0.13117087  0.22705209  1
  O  O14  1  0.13117087  0.43859144  0.22705209  1
  O  O15  1  0.43859144  0.13117087  0.77294791  1
