# generated using pymatgen
data_Y(SiNi)2
_symmetry_space_group_name_H-M   'P 1'
_cell_length_a   3.94522508
_cell_length_b   3.94522527
_cell_length_c   5.50791900
_cell_angle_alpha   110.98608727
_cell_angle_beta   110.98609194
_cell_angle_gamma   89.99998537
_symmetry_Int_Tables_number   1
_chemical_formula_structural   Y(SiNi)2
_chemical_formula_sum   'Y1 Si2 Ni2'
_cell_volume   73.92013927
_cell_formula_units_Z   1
loop_
 _symmetry_equiv_pos_site_id
 _symmetry_equiv_pos_as_xyz
  1  'x, y, z'
loop_
 _atom_site_type_symbol
 _atom_site_label
 _atom_site_symmetry_multiplicity
 _atom_site_fract_x
 _atom_site_fract_y
 _atom_site_fract_z
 _atom_site_occupancy
  Y  Y0  1  0.00000000  0.00000000  -0.00000000  1
  Si  Si1  1  0.62776266  0.62776266  0.25552632  1
  Si  Si2  1  0.37223734  0.37223734  0.74447368  1
  Ni  Ni3  1  0.75000000  0.25000000  0.50000000  1
  Ni  Ni4  1  0.25000000  0.75000000  0.50000000  1
