# generated using pymatgen
data_PrCdPd
_symmetry_space_group_name_H-M   'P 1'
_cell_length_a   7.71644339
_cell_length_b   7.71644361
_cell_length_c   4.07280235
_cell_angle_alpha   90.00000000
_cell_angle_beta   90.00000000
_cell_angle_gamma   119.99999911
_symmetry_Int_Tables_number   1
_chemical_formula_structural   PrCdPd
_chemical_formula_sum   'Pr3 Cd3 Pd3'
_cell_volume   210.01887668
_cell_formula_units_Z   3
loop_
 _symmetry_equiv_pos_site_id
 _symmetry_equiv_pos_as_xyz
  1  'x, y, z'
loop_
 _atom_site_type_symbol
 _atom_site_label
 _atom_site_symmetry_multiplicity
 _atom_site_fract_x
 _atom_site_fract_y
 _atom_site_fract_z
 _atom_site_occupancy
  Pr  Pr0  1  0.40653092  0.40653092  0.50000000  1
  Pr  Pr1  1  -0.00000000  0.59346908  0.50000000  1
  Pr  Pr2  1  0.59346908  -0.00000000  0.50000000  1
  Cd  Cd3  1  0.74962546  0.74962546  -0.00000000  1
  Cd  Cd4  1  0.25037454  -0.00000000  0.00000000  1
  Cd  Cd5  1  0.00000000  0.25037454  -0.00000000  1
  Pd  Pd6  1  0.66666700  0.33333300  -0.00000000  1
  Pd  Pd7  1  -0.00000000  -0.00000000  0.50000000  1
  Pd  Pd8  1  0.33333300  0.66666700  0.00000000  1
