# generated using pymatgen
data_BaZrF6
_symmetry_space_group_name_H-M   'P 1'
_cell_length_a   9.49798026
_cell_length_b   6.52178929
_cell_length_c   9.21830821
_cell_angle_alpha   52.72980955
_cell_angle_beta   90.00000000
_cell_angle_gamma   90.00000000
_symmetry_Int_Tables_number   1
_chemical_formula_structural   BaZrF6
_chemical_formula_sum   'Ba4 Zr4 F24'
_cell_volume   454.40907155
_cell_formula_units_Z   4
loop_
 _symmetry_equiv_pos_site_id
 _symmetry_equiv_pos_as_xyz
  1  'x, y, z'
loop_
 _atom_site_type_symbol
 _atom_site_label
 _atom_site_symmetry_multiplicity
 _atom_site_fract_x
 _atom_site_fract_y
 _atom_site_fract_z
 _atom_site_occupancy
  Ba  Ba0  1  0.31876403  0.58809423  0.63932252  1
  Ba  Ba1  1  0.18123597  0.58809423  0.13932252  1
  Ba  Ba2  1  0.68123597  0.41190577  0.36067748  1
  Ba  Ba3  1  0.81876403  0.41190577  0.86067748  1
  Zr  Zr4  1  0.46388968  0.11977842  0.13576899  1
  Zr  Zr5  1  0.03611032  0.11977842  0.63576899  1
  Zr  Zr6  1  0.53611032  0.88022158  0.86423101  1
  Zr  Zr7  1  0.96388968  0.88022158  0.36423101  1
  F  F8  1  0.10418905  0.07543290  0.85918388  1
  F  F9  1  0.12304217  0.01652342  0.47082913  1
  F  F10  1  0.46829047  0.54746542  0.11404894  1
  F  F11  1  0.39581095  0.07543290  0.35918388  1
  F  F12  1  0.15596355  0.83786336  0.28963356  1
  F  F13  1  0.53170953  0.45253458  0.88595106  1
  F  F14  1  0.21938756  0.31917538  0.52926127  1
  F  F15  1  0.65596355  0.16213664  0.21036644  1
  F  F16  1  0.03170953  0.54746542  0.61404894  1
  F  F17  1  0.45999602  0.72727158  0.32248407  1
  F  F18  1  0.95999602  0.27272842  0.17751593  1
  F  F19  1  0.87695783  0.98347658  0.52917087  1
  F  F20  1  0.71938756  0.68082462  0.97073873  1
  F  F21  1  0.62304217  0.98347658  0.02917087  1
  F  F22  1  0.89581095  0.92456710  0.14081612  1
  F  F23  1  0.78061244  0.68082462  0.47073873  1
  F  F24  1  0.28061244  0.31917538  0.02926127  1
  F  F25  1  0.37695783  0.01652342  0.97082913  1
  F  F26  1  0.04000398  0.72727158  0.82248407  1
  F  F27  1  0.60418905  0.92456710  0.64081612  1
  F  F28  1  0.34403645  0.83786336  0.78963356  1
  F  F29  1  0.54000398  0.27272842  0.67751593  1
  F  F30  1  0.96829047  0.45253458  0.38595106  1
  F  F31  1  0.84403645  0.16213664  0.71036644  1
