# generated using pymatgen
data_MgGa
_symmetry_space_group_name_H-M   'P 1'
_cell_length_a   10.49417939
_cell_length_b   10.49425046
_cell_length_c   5.49928816
_cell_angle_alpha   89.99982401
_cell_angle_beta   90.00003842
_cell_angle_gamma   89.99836032
_symmetry_Int_Tables_number   1
_chemical_formula_structural   MgGa
_chemical_formula_sum   'Mg16 Ga16'
_cell_volume   605.62861391
_cell_formula_units_Z   16
loop_
 _symmetry_equiv_pos_site_id
 _symmetry_equiv_pos_as_xyz
  1  'x, y, z'
loop_
 _atom_site_type_symbol
 _atom_site_label
 _atom_site_symmetry_multiplicity
 _atom_site_fract_x
 _atom_site_fract_y
 _atom_site_fract_z
 _atom_site_occupancy
  Mg  Mg0  1  0.86745491  0.07267800  0.26700845  1
  Mg  Mg1  1  0.07267546  0.13254044  0.73297027  1
  Mg  Mg2  1  0.92732971  0.86747241  0.73295297  1
  Mg  Mg3  1  0.13253205  0.92732641  0.26702701  1
  Mg  Mg4  1  0.36742216  0.07268853  0.48303876  1
  Mg  Mg5  1  0.57267625  0.13254319  0.01699917  1
  Mg  Mg6  1  0.42732432  0.86745012  0.01699723  1
  Mg  Mg7  1  0.63256607  0.92731423  0.48302062  1
  Mg  Mg8  1  0.36746163  0.57267533  0.76701737  1
  Mg  Mg9  1  0.57267024  0.63252606  0.23295030  1
  Mg  Mg10  1  0.42732818  0.36747002  0.23295276  1
  Mg  Mg11  1  0.63253733  0.42732384  0.76702053  1
  Mg  Mg12  1  0.86741283  0.57269128  0.98305589  1
  Mg  Mg13  1  0.07267456  0.63253827  0.51700886  1
  Mg  Mg14  1  0.92732822  0.36746313  0.51702061  1
  Mg  Mg15  1  0.13257738  0.42731207  0.98304152  1
  Ga  Ga16  1  0.19839632  0.39195292  0.49455828  1
  Ga  Ga17  1  0.10803262  0.19837959  0.24453770  1
  Ga  Ga18  1  0.39197068  0.30161729  0.74453145  1
  Ga  Ga19  1  0.30161319  0.10804286  0.99455223  1
  Ga  Ga20  1  0.19839396  0.89196636  0.75544991  1
  Ga  Ga21  1  0.10804399  0.69839194  0.00543711  1
  Ga  Ga22  1  0.39195861  0.80160679  0.50543432  1
  Ga  Ga23  1  0.30160610  0.60803252  0.25545333  1
  Ga  Ga24  1  0.69839614  0.89195355  0.99455393  1
  Ga  Ga25  1  0.60803344  0.69838238  0.74453114  1
  Ga  Ga26  1  0.89197067  0.80161843  0.24453454  1
  Ga  Ga27  1  0.80160496  0.60804338  0.49455961  1
  Ga  Ga28  1  0.69839486  0.39196646  0.25545414  1
  Ga  Ga29  1  0.60804529  0.19839260  0.50543603  1
  Ga  Ga30  1  0.89195746  0.30160853  0.00543877  1
  Ga  Ga31  1  0.80160942  0.10803208  0.75545118  1
