# generated using pymatgen
data_Rb3FeO3
_symmetry_space_group_name_H-M   'P 1'
_cell_length_a   6.83021425
_cell_length_b   10.24730416
_cell_length_c   8.75240898
_cell_angle_alpha   97.89726617
_cell_angle_beta   68.99763374
_cell_angle_gamma   100.65083884
_symmetry_Int_Tables_number   1
_chemical_formula_structural   Rb3FeO3
_chemical_formula_sum   'Rb12 Fe4 O12'
_cell_volume   560.34955520
_cell_formula_units_Z   4
loop_
 _symmetry_equiv_pos_site_id
 _symmetry_equiv_pos_as_xyz
  1  'x, y, z'
loop_
 _atom_site_type_symbol
 _atom_site_label
 _atom_site_symmetry_multiplicity
 _atom_site_fract_x
 _atom_site_fract_y
 _atom_site_fract_z
 _atom_site_occupancy
  Rb  Rb0  1  0.89694590  0.36769978  0.36770958  1
  Rb  Rb1  1  0.39694598  0.86769811  0.86770123  1
  Rb  Rb2  1  0.10305256  0.63230300  0.63229922  1
  Rb  Rb3  1  0.60305600  0.13229976  0.13229033  1
  Rb  Rb4  1  0.53278757  0.15575068  0.65580424  1
  Rb  Rb5  1  0.03278753  0.65575283  0.15580105  1
  Rb  Rb6  1  0.46721256  0.84424852  0.34419897  1
  Rb  Rb7  1  0.96721277  0.34424854  0.84419607  1
  Rb  Rb8  1  0.13945306  0.13941058  0.48635369  1
  Rb  Rb9  1  0.63945075  0.63941992  0.98635102  1
  Rb  Rb10  1  0.86054790  0.86058068  0.51364827  1
  Rb  Rb11  1  0.36054791  0.36058962  0.01364608  1
  Fe  Fe12  1  0.49116837  0.49111762  0.34715448  1
  Fe  Fe13  1  0.00883008  0.00888382  0.15284644  1
  Fe  Fe14  1  0.99117517  0.99111467  0.84714666  1
  Fe  Fe15  1  0.50882512  0.50888410  0.65285130  1
  O  O16  1  0.37474165  0.37481725  0.52710420  1
  O  O17  1  0.87474988  0.87481709  0.02710917  1
  O  O18  1  0.62524666  0.62518333  0.47289300  1
  O  O19  1  0.12525992  0.12518285  0.97289498  1
  O  O20  1  0.20793216  0.94275646  0.20790724  1
  O  O21  1  0.70792931  0.44275719  0.70791369  1
  O  O22  1  0.79207196  0.05724100  0.79208526  1
  O  O23  1  0.29207034  0.55724501  0.29209126  1
  O  O24  1  0.81014244  0.07535477  0.34053128  1
  O  O25  1  0.31013482  0.57536161  0.84053968  1
  O  O26  1  0.18986280  0.92463744  0.65946106  1
  O  O27  1  0.68985681  0.42464577  0.15946856  1
