# generated using pymatgen
data_RbCrF5
_symmetry_space_group_name_H-M   'P 1'
_cell_length_a   5.57854382
_cell_length_b   7.68579223
_cell_length_c   9.91054579
_cell_angle_alpha   90.00000000
_cell_angle_beta   90.00000000
_cell_angle_gamma   90.00000000
_symmetry_Int_Tables_number   1
_chemical_formula_structural   RbCrF5
_chemical_formula_sum   'Rb4 Cr4 F20'
_cell_volume   424.91989091
_cell_formula_units_Z   4
loop_
 _symmetry_equiv_pos_site_id
 _symmetry_equiv_pos_as_xyz
  1  'x, y, z'
loop_
 _atom_site_type_symbol
 _atom_site_label
 _atom_site_symmetry_multiplicity
 _atom_site_fract_x
 _atom_site_fract_y
 _atom_site_fract_z
 _atom_site_occupancy
  Rb  Rb0  1  0.50000000  0.88180876  0.98597816  1
  Rb  Rb1  1  0.50000000  0.11819124  0.48597816  1
  Rb  Rb2  1  -0.00000000  0.37676411  0.13698706  1
  Rb  Rb3  1  -0.00000000  0.62323589  0.63698706  1
  Cr  Cr4  1  -0.00000000  0.88277823  0.24081901  1
  Cr  Cr5  1  0.50000000  0.57857467  0.33808645  1
  Cr  Cr6  1  0.50000000  0.42142533  0.83808645  1
  Cr  Cr7  1  -0.00000000  0.11722177  0.74081901  1
  F  F8  1  0.27051013  0.54424011  0.92010931  1
  F  F9  1  0.74805002  0.70432459  0.23734265  1
  F  F10  1  0.22802056  0.04632679  0.23501468  1
  F  F11  1  0.74805002  0.29567541  0.73734265  1
  F  F12  1  0.50000000  0.24271606  0.95093655  1
  F  F13  1  0.77197944  0.95367321  0.73501468  1
  F  F14  1  0.50000000  0.55862608  0.69224852  1
  F  F15  1  0.22802056  0.95367321  0.73501468  1
  F  F16  1  -0.00000000  0.84232972  0.06351711  1
  F  F17  1  0.77197944  0.04632679  0.23501468  1
  F  F18  1  0.50000000  0.44137392  0.19224852  1
  F  F19  1  0.72948987  0.45575989  0.42010931  1
  F  F20  1  0.25194998  0.70432459  0.23734265  1
  F  F21  1  -0.00000000  0.85324297  0.41800285  1
  F  F22  1  -0.00000000  0.15767028  0.56351711  1
  F  F23  1  0.25194998  0.29567541  0.73734265  1
  F  F24  1  -0.00000000  0.14675703  0.91800285  1
  F  F25  1  0.27051013  0.45575989  0.42010931  1
  F  F26  1  0.50000000  0.75728394  0.45093655  1
  F  F27  1  0.72948987  0.54424011  0.92010931  1
