# generated using pymatgen
data_Nd(SiAu)2
_symmetry_space_group_name_H-M   'P 1'
_cell_length_a   4.32447711
_cell_length_b   4.32447714
_cell_length_c   5.93489553
_cell_angle_alpha   111.36612108
_cell_angle_beta   111.36612217
_cell_angle_gamma   89.99999792
_symmetry_Int_Tables_number   1
_chemical_formula_structural   Nd(SiAu)2
_chemical_formula_sum   'Nd1 Si2 Au2'
_cell_volume   95.12307917
_cell_formula_units_Z   1
loop_
 _symmetry_equiv_pos_site_id
 _symmetry_equiv_pos_as_xyz
  1  'x, y, z'
loop_
 _atom_site_type_symbol
 _atom_site_label
 _atom_site_symmetry_multiplicity
 _atom_site_fract_x
 _atom_site_fract_y
 _atom_site_fract_z
 _atom_site_occupancy
  Nd  Nd0  1  0.00000000  -0.00000000  -0.00000000  1
  Si  Si1  1  0.61464669  0.61464669  0.22929338  1
  Si  Si2  1  0.38535331  0.38535331  0.77070662  1
  Au  Au3  1  0.25000000  0.75000000  0.50000000  1
  Au  Au4  1  0.75000000  0.25000000  0.50000000  1
