# generated using pymatgen
data_Pr5(RuO6)2
_symmetry_space_group_name_H-M   'P 1'
_cell_length_a   7.08108721
_cell_length_b   7.08108755
_cell_length_c   7.69924708
_cell_angle_alpha   74.21647115
_cell_angle_beta   74.21647603
_cell_angle_gamma   49.97763844
_symmetry_Int_Tables_number   1
_chemical_formula_structural   Pr5(RuO6)2
_chemical_formula_sum   'Pr5 Ru2 O12'
_cell_volume   282.01153832
_cell_formula_units_Z   1
loop_
 _symmetry_equiv_pos_site_id
 _symmetry_equiv_pos_as_xyz
  1  'x, y, z'
loop_
 _atom_site_type_symbol
 _atom_site_label
 _atom_site_symmetry_multiplicity
 _atom_site_fract_x
 _atom_site_fract_y
 _atom_site_fract_z
 _atom_site_occupancy
  Pr  Pr0  1  0.30685551  0.30686159  0.35708738  1
  Pr  Pr1  1  0.69313846  0.69314460  0.64291253  1
  Pr  Pr2  1  0.69087714  0.69088272  0.16719137  1
  Pr  Pr3  1  0.30911727  0.30912282  0.83280847  1
  Pr  Pr4  1  0.00000467  0.99999537  0.49999990  1
  Ru  Ru5  1  0.76481624  0.23518367  -0.00000004  1
  Ru  Ru6  1  0.23519018  0.76480992  -0.00000004  1
  O  O7  1  0.09583329  0.59460177  0.57773076  1
  O  O8  1  0.99914798  0.99912073  0.18357663  1
  O  O9  1  0.40539826  0.90416670  0.42226878  1
  O  O10  1  0.49992506  0.49994653  0.16942687  1
  O  O11  1  0.09680339  0.58749174  0.07777141  1
  O  O12  1  0.90416586  0.40540027  0.42226843  1
  O  O13  1  0.00087921  0.00085198  0.81642342  1
  O  O14  1  0.59459971  0.09583414  0.57773156  1
  O  O15  1  0.50005339  0.50007500  0.83057315  1
  O  O16  1  0.58748701  0.09679988  0.07777417  1
  O  O17  1  0.41250819  0.90319653  0.92222857  1
  O  O18  1  0.90320017  0.41251304  0.92222571  1
