# generated using pymatgen
data_As3Ir
_symmetry_space_group_name_H-M   'P 1'
_cell_length_a   7.37736142
_cell_length_b   7.37736111
_cell_length_c   7.37736139
_cell_angle_alpha   109.47122417
_cell_angle_beta   109.47122334
_cell_angle_gamma   109.47121485
_symmetry_Int_Tables_number   1
_chemical_formula_structural   As3Ir
_chemical_formula_sum   'As12 Ir4'
_cell_volume   309.08737581
_cell_formula_units_Z   4
loop_
 _symmetry_equiv_pos_site_id
 _symmetry_equiv_pos_as_xyz
  1  'x, y, z'
loop_
 _atom_site_type_symbol
 _atom_site_label
 _atom_site_symmetry_multiplicity
 _atom_site_fract_x
 _atom_site_fract_y
 _atom_site_fract_z
 _atom_site_occupancy
  As  As0  1  0.49298688  0.14511912  0.34786776  1
  As  As1  1  0.14511912  0.65213224  0.79725035  1
  As  As2  1  0.34786776  0.20274965  0.85488188  1
  As  As3  1  0.85488188  0.65213224  0.50701312  1
  As  As4  1  0.65213224  0.79725035  0.14511912  1
  As  As5  1  0.85488188  0.34786776  0.20274965  1
  As  As6  1  0.65213224  0.50701312  0.85488188  1
  As  As7  1  0.34786776  0.49298688  0.14511912  1
  As  As8  1  0.14511912  0.34786776  0.49298688  1
  As  As9  1  0.79725035  0.14511912  0.65213224  1
  As  As10  1  0.20274965  0.85488188  0.34786776  1
  As  As11  1  0.50701312  0.85488188  0.65213224  1
  Ir  Ir12  1  0.50000000  0.50000000  0.50000000  1
  Ir  Ir13  1  0.00000000  0.50000000  0.00000000  1
  Ir  Ir14  1  0.00000000  0.00000000  0.50000000  1
  Ir  Ir15  1  0.50000000  0.00000000  0.00000000  1
