# generated using pymatgen
data_CsHSO4
_symmetry_space_group_name_H-M   'P 1'
_cell_length_a   7.73265102
_cell_length_b   7.58094715
_cell_length_c   8.01376746
_cell_angle_alpha   90.00000000
_cell_angle_beta   90.00000000
_cell_angle_gamma   105.65148318
_symmetry_Int_Tables_number   1
_chemical_formula_structural   CsHSO4
_chemical_formula_sum   'Cs4 H4 S4 O16'
_cell_volume   452.35465778
_cell_formula_units_Z   4
loop_
 _symmetry_equiv_pos_site_id
 _symmetry_equiv_pos_as_xyz
  1  'x, y, z'
loop_
 _atom_site_type_symbol
 _atom_site_label
 _atom_site_symmetry_multiplicity
 _atom_site_fract_x
 _atom_site_fract_y
 _atom_site_fract_z
 _atom_site_occupancy
  Cs  Cs0  1  0.18896908  0.21772531  0.87374200  1
  Cs  Cs1  1  0.31103092  0.78227469  0.37374200  1
  Cs  Cs2  1  0.81103092  0.78227469  0.12625800  1
  Cs  Cs3  1  0.68896908  0.21772531  0.62625800  1
  H  H4  1  0.48644992  0.35469094  0.15036803  1
  H  H5  1  0.01355008  0.64530906  0.65036803  1
  H  H6  1  0.51355008  0.64530906  0.84963197  1
  H  H7  1  0.98644992  0.35469094  0.34963197  1
  S  S8  1  0.21846136  0.24629457  0.36179209  1
  S  S9  1  0.28153864  0.75370543  0.86179209  1
  S  S10  1  0.78153864  0.75370543  0.63820791  1
  S  S11  1  0.71846136  0.24629457  0.13820791  1
  O  O12  1  0.07713707  0.33887055  0.43709454  1
  O  O13  1  0.42286293  0.66112945  0.93709454  1
  O  O14  1  0.92286293  0.66112945  0.56290546  1
  O  O15  1  0.57713707  0.33887055  0.06290546  1
  O  O16  1  0.33937777  0.39043155  0.26116949  1
  O  O17  1  0.16062223  0.60956845  0.76116949  1
  O  O18  1  0.66062223  0.60956845  0.73883051  1
  O  O19  1  0.83937777  0.39043155  0.23883051  1
  O  O20  1  0.30596143  0.19514798  0.50526644  1
  O  O21  1  0.19403857  0.80485202  0.00526644  1
  O  O22  1  0.69403857  0.80485202  0.49473356  1
  O  O23  1  0.80596143  0.19514798  0.99473356  1
  O  O24  1  0.12260034  0.09415758  0.25953907  1
  O  O25  1  0.37739966  0.90584242  0.75953907  1
  O  O26  1  0.87739966  0.90584242  0.74046093  1
  O  O27  1  0.62260034  0.09415758  0.24046093  1
