# generated using pymatgen
data_C
_symmetry_space_group_name_H-M   'P 1'
_cell_length_a   18.29342148
_cell_length_b   18.29342148
_cell_length_c   18.29342199
_cell_angle_alpha   7.69793345
_cell_angle_beta   7.69793345
_cell_angle_gamma   7.69793368
_symmetry_Int_Tables_number   1
_chemical_formula_structural   C
_chemical_formula_sum   C8
_cell_volume   95.27008969
_cell_formula_units_Z   8
loop_
 _symmetry_equiv_pos_site_id
 _symmetry_equiv_pos_as_xyz
  1  'x, y, z'
loop_
 _atom_site_type_symbol
 _atom_site_label
 _atom_site_symmetry_multiplicity
 _atom_site_fract_x
 _atom_site_fract_y
 _atom_site_fract_z
 _atom_site_occupancy
  C  C0  1  0.03157945  0.03157945  0.03157945  1
  C  C1  1  0.90548957  0.90548957  0.90548957  1
  C  C2  1  0.76117178  0.76117178  0.76117178  1
  C  C3  1  0.09451043  0.09451043  0.09451043  1
  C  C4  1  0.96842055  0.96842055  0.96842055  1
  C  C5  1  0.36492107  0.36492107  0.36492107  1
  C  C6  1  0.23882822  0.23882822  0.23882822  1
  C  C7  1  0.63507893  0.63507893  0.63507893  1
