# generated using pymatgen
data_Co2(GeSe)3
_symmetry_space_group_name_H-M   'P 1'
_cell_length_a   8.28851143
_cell_length_b   8.28858739
_cell_length_c   8.28850929
_cell_angle_alpha   89.93080330
_cell_angle_beta   89.93114605
_cell_angle_gamma   89.93069994
_symmetry_Int_Tables_number   1
_chemical_formula_structural   Co2(GeSe)3
_chemical_formula_sum   'Co8 Ge12 Se12'
_cell_volume   569.41977183
_cell_formula_units_Z   4
loop_
 _symmetry_equiv_pos_site_id
 _symmetry_equiv_pos_as_xyz
  1  'x, y, z'
loop_
 _atom_site_type_symbol
 _atom_site_label
 _atom_site_symmetry_multiplicity
 _atom_site_fract_x
 _atom_site_fract_y
 _atom_site_fract_z
 _atom_site_occupancy
  Co  Co0  1  0.24977702  0.24977362  0.24977543  1
  Co  Co1  1  0.75022307  0.75022229  0.75022185  1
  Co  Co2  1  0.75247972  0.25098189  0.25192305  1
  Co  Co3  1  0.25098062  0.25192011  0.75248158  1
  Co  Co4  1  0.25191967  0.75247783  0.25097947  1
  Co  Co5  1  0.74807876  0.24751819  0.74902204  1
  Co  Co6  1  0.24751895  0.74902263  0.74807741  1
  Co  Co7  1  0.74902303  0.74808115  0.24751902  1
  Ge  Ge8  1  0.99901694  0.32857393  0.84277913  1
  Ge  Ge9  1  0.32857162  0.84277515  0.99901357  1
  Ge  Ge10  1  0.84277976  0.99901120  0.32857361  1
  Ge  Ge11  1  0.00098627  0.67142877  0.15721732  1
  Ge  Ge12  1  0.67142886  0.15721777  0.00098417  1
  Ge  Ge13  1  0.15721855  0.00098155  0.67142837  1
  Ge  Ge14  1  0.49757849  0.82786380  0.65653637  1
  Ge  Ge15  1  0.82786528  0.65653883  0.49758119  1
  Ge  Ge16  1  0.65653711  0.49758489  0.82786437  1
  Ge  Ge17  1  0.50242174  0.17213398  0.34346638  1
  Ge  Ge18  1  0.17213488  0.34346287  0.50242536  1
  Ge  Ge19  1  0.34346469  0.50242616  0.17213362  1
  Se  Se20  1  0.99635287  0.65456470  0.85315435  1
  Se  Se21  1  0.65456341  0.85315806  0.99634913  1
  Se  Se22  1  0.85314960  0.99636106  0.65455735  1
  Se  Se23  1  0.00364517  0.34543975  0.14683835  1
  Se  Se24  1  0.34544793  0.14682809  0.00365930  1
  Se  Se25  1  0.14683296  0.00367017  0.34543620  1
  Se  Se26  1  0.49934658  0.15484481  0.64752610  1
  Se  Se27  1  0.15485233  0.64751612  0.49935326  1
  Se  Se28  1  0.64752444  0.49934504  0.15485249  1
  Se  Se29  1  0.50064828  0.84514267  0.35247630  1
  Se  Se30  1  0.84514819  0.35247901  0.50065364  1
  Se  Se31  1  0.35248224  0.50065391  0.84513822  1
