# generated using pymatgen
data_Eu2SiO4
_symmetry_space_group_name_H-M   'P 1'
_cell_length_a   5.55742555
_cell_length_b   7.05622568
_cell_length_c   9.81969236
_cell_angle_alpha   90.00000000
_cell_angle_beta   90.00000000
_cell_angle_gamma   90.00000000
_symmetry_Int_Tables_number   1
_chemical_formula_structural   Eu2SiO4
_chemical_formula_sum   'Eu8 Si4 O16'
_cell_volume   385.07382407
_cell_formula_units_Z   4
loop_
 _symmetry_equiv_pos_site_id
 _symmetry_equiv_pos_as_xyz
  1  'x, y, z'
loop_
 _atom_site_type_symbol
 _atom_site_label
 _atom_site_symmetry_multiplicity
 _atom_site_fract_x
 _atom_site_fract_y
 _atom_site_fract_z
 _atom_site_occupancy
  Eu  Eu0  1  0.75000000  0.84700375  0.07214545  1
  Eu  Eu1  1  0.25000000  0.15299625  0.92785455  1
  Eu  Eu2  1  0.75000000  0.34700375  0.42785455  1
  Eu  Eu3  1  0.25000000  0.65299625  0.57214545  1
  Eu  Eu4  1  0.75000000  0.50484672  0.80382236  1
  Eu  Eu5  1  0.25000000  0.49515328  0.19617764  1
  Eu  Eu6  1  0.75000000  0.00484672  0.69617764  1
  Eu  Eu7  1  0.25000000  0.99515328  0.30382236  1
  Si  Si8  1  0.75000000  0.27874640  0.07909838  1
  Si  Si9  1  0.25000000  0.72125360  0.92090162  1
  Si  Si10  1  0.75000000  0.77874640  0.42090162  1
  Si  Si11  1  0.25000000  0.22125360  0.57909838  1
  O  O12  1  0.75000000  0.50824747  0.07563435  1
  O  O13  1  0.25000000  0.49175253  0.92436565  1
  O  O14  1  0.75000000  0.00824747  0.42436565  1
  O  O15  1  0.25000000  0.99175253  0.57563435  1
  O  O16  1  0.75000000  0.18634184  0.92462194  1
  O  O17  1  0.25000000  0.81365816  0.07537806  1
  O  O18  1  0.75000000  0.68634184  0.57537806  1
  O  O19  1  0.25000000  0.31365816  0.42462194  1
  O  O20  1  0.50977492  0.19551187  0.15302157  1
  O  O21  1  0.00977492  0.80448813  0.84697843  1
  O  O22  1  0.99022508  0.69551187  0.34697843  1
  O  O23  1  0.49022508  0.30448813  0.65302157  1
  O  O24  1  0.49022508  0.80448813  0.84697843  1
  O  O25  1  0.99022508  0.19551187  0.15302157  1
  O  O26  1  0.00977492  0.30448813  0.65302157  1
  O  O27  1  0.50977492  0.69551187  0.34697843  1
