# generated using pymatgen
data_Yb2CdSb2
_symmetry_space_group_name_H-M   'P 1'
_cell_length_a   9.78222128
_cell_length_b   9.78222128
_cell_length_c   6.46534759
_cell_angle_alpha   90.00000000
_cell_angle_beta   90.00000000
_cell_angle_gamma   154.68059863
_symmetry_Int_Tables_number   1
_chemical_formula_structural   Yb2CdSb2
_chemical_formula_sum   'Yb4 Cd2 Sb4'
_cell_volume   264.58761649
_cell_formula_units_Z   2
loop_
 _symmetry_equiv_pos_site_id
 _symmetry_equiv_pos_as_xyz
  1  'x, y, z'
loop_
 _atom_site_type_symbol
 _atom_site_label
 _atom_site_symmetry_multiplicity
 _atom_site_fract_x
 _atom_site_fract_y
 _atom_site_fract_z
 _atom_site_occupancy
  Yb  Yb0  1  0.48522017  0.51477983  0.70673088  1
  Yb  Yb1  1  0.51477983  0.48522017  0.20673088  1
  Yb  Yb2  1  0.69965674  0.30034326  0.52277497  1
  Yb  Yb3  1  0.30034326  0.69965674  0.02277497  1
  Cd  Cd4  1  0.90621067  0.09378933  0.42173826  1
  Cd  Cd5  1  0.09378933  0.90621067  0.92173826  1
  Sb  Sb6  1  0.31241536  0.68758464  0.53225615  1
  Sb  Sb7  1  0.68758464  0.31241536  0.03225615  1
  Sb  Sb8  1  0.08697773  0.91302227  0.47400974  1
  Sb  Sb9  1  0.91302227  0.08697773  0.97400974  1
