# generated using pymatgen
data_KU2F9
_symmetry_space_group_name_H-M   'P 1'
_cell_length_a   7.02675823
_cell_length_b   8.70031775
_cell_length_c   11.38949144
_cell_angle_alpha   89.98340426
_cell_angle_beta   90.00143804
_cell_angle_gamma   90.00588025
_symmetry_Int_Tables_number   1
_chemical_formula_structural   KU2F9
_chemical_formula_sum   'K4 U8 F36'
_cell_volume   696.29686018
_cell_formula_units_Z   4
loop_
 _symmetry_equiv_pos_site_id
 _symmetry_equiv_pos_as_xyz
  1  'x, y, z'
loop_
 _atom_site_type_symbol
 _atom_site_label
 _atom_site_symmetry_multiplicity
 _atom_site_fract_x
 _atom_site_fract_y
 _atom_site_fract_z
 _atom_site_occupancy
  K  K0  1  0.85712478  0.53442104  0.25006469  1
  K  K1  1  0.64287955  0.03462147  0.25009430  1
  K  K2  1  0.14292929  0.46555951  0.74987215  1
  K  K3  1  0.35711240  0.96537278  0.74988434  1
  U  U4  1  0.34694999  0.67472911  0.04889763  1
  U  U5  1  0.15262844  0.17474313  0.45099599  1
  U  U6  1  0.65275590  0.32471769  0.54902681  1
  U  U7  1  0.84698984  0.82532476  0.95115450  1
  U  U8  1  0.65317043  0.32529449  0.95107613  1
  U  U9  1  0.84714288  0.82466219  0.54903390  1
  U  U10  1  0.34729767  0.67475971  0.45096189  1
  U  U11  1  0.15311447  0.17474018  0.04883131  1
  F  F12  1  0.33630343  0.67221139  0.24997492  1
  F  F13  1  0.16334611  0.17179607  0.24995058  1
  F  F14  1  0.66329648  0.32830118  0.75001477  1
  F  F15  1  0.83692243  0.82809458  0.75000346  1
  F  F16  1  0.57307318  0.49641698  0.10108076  1
  F  F17  1  0.92690513  0.99624725  0.39905815  1
  F  F18  1  0.42731222  0.50357919  0.60096068  1
  F  F19  1  0.07296722  0.00371397  0.89885622  1
  F  F20  1  0.42693486  0.50360915  0.89899109  1
  F  F21  1  0.07268462  0.00356405  0.60095149  1
  F  F22  1  0.57312906  0.49635229  0.39906029  1
  F  F23  1  0.92704319  0.99627965  0.10112869  1
  F  F24  1  0.02589532  0.70902743  0.09706712  1
  F  F25  1  0.47364741  0.20926011  0.40294583  1
  F  F26  1  0.97308081  0.29089484  0.59710465  1
  F  F27  1  0.52601148  0.79094021  0.90295167  1
  F  F28  1  0.97406201  0.29088604  0.90280434  1
  F  F29  1  0.52681137  0.79094101  0.59707497  1
  F  F30  1  0.02625795  0.70913262  0.40295012  1
  F  F31  1  0.47405453  0.20923360  0.09707463  1
  F  F32  1  0.64569902  0.78666717  0.10849758  1
  F  F33  1  0.85399846  0.28640862  0.39148306  1
  F  F34  1  0.35397000  0.21363210  0.60851728  1
  F  F35  1  0.14585482  0.71349712  0.89157237  1
  F  F36  1  0.35425544  0.21338245  0.89151189  1
  F  F37  1  0.14612604  0.71366398  0.60841955  1
  F  F38  1  0.64593618  0.78646454  0.39145521  1
  F  F39  1  0.85430884  0.28653896  0.10839300  1
  F  F40  1  0.30221181  0.93391470  0.07663804  1
  F  F41  1  0.19767306  0.43378653  0.42325033  1
  F  F42  1  0.69762318  0.06627282  0.57687076  1
  F  F43  1  0.80230247  0.56617145  0.92313967  1
  F  F44  1  0.69775949  0.06618551  0.92318452  1
  F  F45  1  0.80241866  0.56630815  0.57702008  1
  F  F46  1  0.30232646  0.93377855  0.42332406  1
  F  F47  1  0.19770065  0.43389968  0.07681858  1
