# generated using pymatgen
data_YbCuAs2
_symmetry_space_group_name_H-M   'P 1'
_cell_length_a   3.83496737
_cell_length_b   3.83496737
_cell_length_c   9.78051233
_cell_angle_alpha   90.00000000
_cell_angle_beta   90.00000000
_cell_angle_gamma   90.00000000
_symmetry_Int_Tables_number   1
_chemical_formula_structural   YbCuAs2
_chemical_formula_sum   'Yb2 Cu2 As4'
_cell_volume   143.84174775
_cell_formula_units_Z   2
loop_
 _symmetry_equiv_pos_site_id
 _symmetry_equiv_pos_as_xyz
  1  'x, y, z'
loop_
 _atom_site_type_symbol
 _atom_site_label
 _atom_site_symmetry_multiplicity
 _atom_site_fract_x
 _atom_site_fract_y
 _atom_site_fract_z
 _atom_site_occupancy
  Yb  Yb0  1  0.50000000  0.00000000  0.23528614  1
  Yb  Yb1  1  0.00000000  0.50000000  0.76471386  1
  Cu  Cu2  1  0.00000000  0.00000000  0.50000000  1
  Cu  Cu3  1  0.50000000  0.50000000  0.50000000  1
  As  As4  1  0.00000000  0.00000000  0.00000000  1
  As  As5  1  0.50000000  0.50000000  0.00000000  1
  As  As6  1  0.00000000  0.50000000  0.33744204  1
  As  As7  1  0.50000000  0.00000000  0.66255796  1
