# generated using pymatgen
data_Er2Al3Co
_symmetry_space_group_name_H-M   'P 1'
_cell_length_a   5.42839484
_cell_length_b   5.42839528
_cell_length_c   8.56027582
_cell_angle_alpha   90.00000352
_cell_angle_beta   89.99999307
_cell_angle_gamma   119.99990591
_symmetry_Int_Tables_number   1
_chemical_formula_structural   Er2Al3Co
_chemical_formula_sum   'Er4 Al6 Co2'
_cell_volume   218.45485186
_cell_formula_units_Z   2
loop_
 _symmetry_equiv_pos_site_id
 _symmetry_equiv_pos_as_xyz
  1  'x, y, z'
loop_
 _atom_site_type_symbol
 _atom_site_label
 _atom_site_symmetry_multiplicity
 _atom_site_fract_x
 _atom_site_fract_y
 _atom_site_fract_z
 _atom_site_occupancy
  Er  Er0  1  0.33333400  0.66666900  0.44149576  1
  Er  Er1  1  0.66666800  0.33333400  0.94154762  1
  Er  Er2  1  0.66666600  0.33333100  0.55850424  1
  Er  Er3  1  0.33333200  0.66666600  0.05845238  1
  Al  Al4  1  0.32628788  0.16314394  0.24992148  1
  Al  Al5  1  0.16314394  0.83685606  0.75007852  1
  Al  Al6  1  0.16314394  0.32628788  0.75007852  1
  Al  Al7  1  0.83685606  0.67371212  0.24992148  1
  Al  Al8  1  0.67371212  0.83685606  0.75007852  1
  Al  Al9  1  0.83685606  0.16314394  0.24992148  1
  Co  Co10  1  0.00000000  0.00000000  -0.00000000  1
  Co  Co11  1  0.00000000  0.00000000  0.50000000  1
