# generated using pymatgen
data_Zr2(Ni7B2)3
_symmetry_space_group_name_H-M   'P 1'
_cell_length_a   7.42184051
_cell_length_b   7.42184242
_cell_length_c   7.42184077
_cell_angle_alpha   60.00194033
_cell_angle_beta   60.00193352
_cell_angle_gamma   60.00194127
_symmetry_Int_Tables_number   1
_chemical_formula_structural   Zr2(Ni7B2)3
_chemical_formula_sum   'Zr2 Ni21 B6'
_cell_volume   289.09399279
_cell_formula_units_Z   1
loop_
 _symmetry_equiv_pos_site_id
 _symmetry_equiv_pos_as_xyz
  1  'x, y, z'
loop_
 _atom_site_type_symbol
 _atom_site_label
 _atom_site_symmetry_multiplicity
 _atom_site_fract_x
 _atom_site_fract_y
 _atom_site_fract_z
 _atom_site_occupancy
  Zr  Zr0  1  0.74999404  0.74999188  0.74999406  1
  Zr  Zr1  1  0.25000595  0.25000846  0.25000623  1
  Ni  Ni2  1  -0.00000006  0.00000026  0.00000038  1
  Ni  Ni3  1  0.61415953  0.61415969  0.15753074  1
  Ni  Ni4  1  0.61415958  0.15753000  0.61415919  1
  Ni  Ni5  1  0.15753098  0.61415971  0.61415930  1
  Ni  Ni6  1  0.61415439  0.61415541  0.61415460  1
  Ni  Ni7  1  0.38584029  0.38583974  0.84246963  1
  Ni  Ni8  1  0.38584047  0.84247032  0.38583980  1
  Ni  Ni9  1  0.84246938  0.38583999  0.38584030  1
  Ni  Ni10  1  0.38584562  0.38584415  0.38584563  1
  Ni  Ni11  1  0.00000226  0.00000273  0.33899926  1
  Ni  Ni12  1  0.66100474  0.00000005  0.33899539  1
  Ni  Ni13  1  -0.00000038  0.66100557  0.33899508  1
  Ni  Ni14  1  0.66100489  0.33899446  0.00000062  1
  Ni  Ni15  1  0.00000265  0.33899874  0.00000292  1
  Ni  Ni16  1  0.00000046  0.33899467  0.66100484  1
  Ni  Ni17  1  0.33899521  0.66100529  -0.00000018  1
  Ni  Ni18  1  0.33899535  0.00000019  0.66100453  1
  Ni  Ni19  1  0.33899916  0.00000267  0.00000257  1
  Ni  Ni20  1  -0.00000208  -0.00000220  0.66099987  1
  Ni  Ni21  1  -0.00000240  0.66100051  -0.00000262  1
  Ni  Ni22  1  0.66100004  -0.00000221  -0.00000201  1
  B  B23  1  0.73121350  0.73121264  0.26879198  1
  B  B24  1  0.26878688  0.73120747  0.26878690  1
  B  B25  1  0.73120778  0.26878742  0.26878664  1
  B  B26  1  0.26878662  0.26878738  0.73120772  1
  B  B27  1  0.73121326  0.26879223  0.73121312  1
  B  B28  1  0.26879190  0.73121277  0.73121350  1
