# generated using pymatgen
data_K2BeF4
_symmetry_space_group_name_H-M   'P 1'
_cell_length_a   5.62008811
_cell_length_b   7.25839496
_cell_length_c   9.79936780
_cell_angle_alpha   90.00000000
_cell_angle_beta   90.00000000
_cell_angle_gamma   90.00000000
_symmetry_Int_Tables_number   1
_chemical_formula_structural   K2BeF4
_chemical_formula_sum   'K8 Be4 F16'
_cell_volume   399.74383906
_cell_formula_units_Z   4
loop_
 _symmetry_equiv_pos_site_id
 _symmetry_equiv_pos_as_xyz
  1  'x, y, z'
loop_
 _atom_site_type_symbol
 _atom_site_label
 _atom_site_symmetry_multiplicity
 _atom_site_fract_x
 _atom_site_fract_y
 _atom_site_fract_z
 _atom_site_occupancy
  K  K0  1  0.25000000  0.98852498  0.30910960  1
  K  K1  1  0.75000000  0.01147502  0.69089040  1
  K  K2  1  0.75000000  0.51147502  0.80910960  1
  K  K3  1  0.25000000  0.48852498  0.19089040  1
  K  K4  1  0.25000000  0.15628210  0.90962654  1
  K  K5  1  0.75000000  0.84371790  0.09037346  1
  K  K6  1  0.75000000  0.34371790  0.40962654  1
  K  K7  1  0.25000000  0.65628210  0.59037346  1
  Be  Be8  1  0.25000000  0.23262714  0.58182351  1
  Be  Be9  1  0.75000000  0.76737286  0.41817649  1
  Be  Be10  1  0.75000000  0.26737286  0.08182351  1
  Be  Be11  1  0.25000000  0.73262714  0.91817649  1
  F  F12  1  0.02506736  0.30746899  0.65483950  1
  F  F13  1  0.52506736  0.69253101  0.34516050  1
  F  F14  1  0.52506736  0.19253101  0.15483950  1
  F  F15  1  0.02506736  0.80746899  0.84516050  1
  F  F16  1  0.47493264  0.80746899  0.84516050  1
  F  F17  1  0.97493264  0.19253101  0.15483950  1
  F  F18  1  0.97493264  0.69253101  0.34516050  1
  F  F19  1  0.47493264  0.30746899  0.65483950  1
  F  F20  1  0.25000000  0.51986683  0.91621622  1
  F  F21  1  0.75000000  0.48013317  0.08378378  1
  F  F22  1  0.75000000  0.98013317  0.41621622  1
  F  F23  1  0.25000000  0.01986683  0.58378378  1
  F  F24  1  0.25000000  0.81204836  0.06652927  1
  F  F25  1  0.75000000  0.18795164  0.93347073  1
  F  F26  1  0.75000000  0.68795164  0.56652927  1
  F  F27  1  0.25000000  0.31204836  0.43347073  1
