# generated using pymatgen
data_SiO2
_symmetry_space_group_name_H-M   'P 1'
_cell_length_a   5.01710111
_cell_length_b   12.67995759
_cell_length_c   14.82451656
_cell_angle_alpha   103.14270879
_cell_angle_beta   90.93852111
_cell_angle_gamma   100.65452292
_symmetry_Int_Tables_number   1
_chemical_formula_structural   SiO2
_chemical_formula_sum   'Si16 O32'
_cell_volume   900.86713973
_cell_formula_units_Z   16
loop_
 _symmetry_equiv_pos_site_id
 _symmetry_equiv_pos_as_xyz
  1  'x, y, z'
loop_
 _atom_site_type_symbol
 _atom_site_label
 _atom_site_symmetry_multiplicity
 _atom_site_fract_x
 _atom_site_fract_y
 _atom_site_fract_z
 _atom_site_occupancy
  Si  Si0  1  0.88166916  0.90200337  0.35590123  1
  Si  Si1  1  0.70613832  0.28255260  0.42568067  1
  Si  Si2  1  0.65949590  0.44259147  0.30234640  1
  Si  Si3  1  0.65922089  0.38778342  0.90425018  1
  Si  Si4  1  0.34077953  0.61221638  0.09574969  1
  Si  Si5  1  0.22088777  0.52739659  0.89123480  1
  Si  Si6  1  0.11833008  0.09799674  0.64409878  1
  Si  Si7  1  0.77911253  0.47260331  0.10876500  1
  Si  Si8  1  0.67445691  0.21829707  0.72850934  1
  Si  Si9  1  0.29386219  0.71744739  0.57431928  1
  Si  Si10  1  0.85506517  0.85458004  0.55877292  1
  Si  Si11  1  0.77124696  0.41725788  0.62826622  1
  Si  Si12  1  0.14493483  0.14542013  0.44122725  1
  Si  Si13  1  0.22875310  0.58274193  0.37173367  1
  Si  Si14  1  0.32554219  0.78170279  0.27149034  1
  Si  Si15  1  0.34050474  0.55740856  0.69765363  1
  O  O16  1  0.10206640  0.52236379  0.12405499  1
  O  O17  1  0.35269084  0.73265969  0.16231911  1
  O  O18  1  0.62310647  0.51809713  0.67147938  1
  O  O19  1  0.33329739  0.68603806  0.32663266  1
  O  O20  1  0.68180017  0.41427992  0.19125613  1
  O  O21  1  0.90495628  0.54228684  0.35119850  1
  O  O22  1  0.67117913  0.33183437  0.33637068  1
  O  O23  1  0.64730931  0.26734033  0.83768070  1
  O  O24  1  0.99080028  0.24061718  0.42402678  1
  O  O25  1  0.37689417  0.48190296  0.32852046  1
  O  O26  1  0.09504331  0.45771302  0.64880235  1
  O  O27  1  0.95523712  0.17416181  0.71623001  1
  O  O28  1  0.71324424  0.38243385  0.01076841  1
  O  O29  1  0.98122715  0.96991932  0.62997134  1
  O  O30  1  0.28675605  0.61756606  0.98923159  1
  O  O31  1  0.37345899  0.42568402  0.89192637  1
  O  O32  1  0.70289627  0.37955154  0.51761615  1
  O  O33  1  0.01877347  0.03008054  0.37002891  1
  O  O34  1  0.11075639  0.13315328  0.54638293  1
  O  O35  1  0.32882083  0.66816557  0.66362910  1
  O  O36  1  0.53725642  0.82087697  0.57567086  1
  O  O37  1  0.46274391  0.17912354  0.42433013  1
  O  O38  1  0.89793397  0.47763611  0.87594487  1
  O  O39  1  0.88924122  0.86684713  0.45361730  1
  O  O40  1  0.42629334  0.11725560  0.68635043  1
  O  O41  1  0.62654112  0.57431595  0.10807363  1
  O  O42  1  0.04476185  0.82583824  0.28376994  1
  O  O43  1  0.00919983  0.75938252  0.57597262  1
  O  O44  1  0.29710486  0.62044865  0.48238373  1
  O  O45  1  0.66670121  0.31396160  0.67336690  1
  O  O46  1  0.57370584  0.88274427  0.31364958  1
  O  O47  1  0.31820091  0.58572045  0.80874406  1
