# generated using pymatgen
data_Mn2BiO5
_symmetry_space_group_name_H-M   'P 1'
_cell_length_a   5.76294167
_cell_length_b   7.50422576
_cell_length_c   8.55810989
_cell_angle_alpha   89.99977470
_cell_angle_beta   89.99998806
_cell_angle_gamma   89.99999348
_symmetry_Int_Tables_number   1
_chemical_formula_structural   Mn2BiO5
_chemical_formula_sum   'Mn8 Bi4 O20'
_cell_volume   370.10757477
_cell_formula_units_Z   4
loop_
 _symmetry_equiv_pos_site_id
 _symmetry_equiv_pos_as_xyz
  1  'x, y, z'
loop_
 _atom_site_type_symbol
 _atom_site_label
 _atom_site_symmetry_multiplicity
 _atom_site_fract_x
 _atom_site_fract_y
 _atom_site_fract_z
 _atom_site_occupancy
  Mn  Mn0  1  0.25859042  0.49999980  0.50000000  1
  Mn  Mn1  1  0.74140940  0.00000035  -0.00000084  1
  Mn  Mn2  1  0.74140979  0.49999978  0.50000022  1
  Mn  Mn3  1  0.25859056  0.00000033  -0.00000090  1
  Mn  Mn4  1  0.50000001  0.59320875  0.15013096  1
  Mn  Mn5  1  0.50000038  0.40679327  0.84987000  1
  Mn  Mn6  1  0.49999992  0.09321014  0.34987023  1
  Mn  Mn7  1  0.50000007  0.90679125  0.65012956  1
  Bi  Bi8  1  0.00000002  0.84604226  0.33407573  1
  Bi  Bi9  1  0.00000021  0.15395840  0.66592385  1
  Bi  Bi10  1  0.00000012  0.34604279  0.16592532  1
  Bi  Bi11  1  0.00000001  0.65395711  0.83407563  1
  O  O12  1  0.00000003  0.84436266  0.05523770  1
  O  O13  1  0.00000004  0.15563743  0.94476177  1
  O  O14  1  0.00000006  0.34436340  0.44476262  1
  O  O15  1  0.00000006  0.65563157  0.55523940  1
  O  O16  1  0.50000000  0.85207815  0.07009134  1
  O  O17  1  0.50000009  0.14792163  0.92990613  1
  O  O18  1  0.50000022  0.35207728  0.42990860  1
  O  O19  1  0.49999996  0.64792189  0.57009237  1
  O  O20  1  0.25325798  0.61041527  0.29866873  1
  O  O21  1  0.25325960  0.38958475  0.70133214  1
  O  O22  1  0.74673962  0.11041451  0.20133119  1
  O  O23  1  0.74674121  0.88958389  0.79866748  1
  O  O24  1  0.74674300  0.38958535  0.70133314  1
  O  O25  1  0.74674184  0.61041543  0.29866886  1
  O  O26  1  0.25325881  0.88958399  0.79866746  1
  O  O27  1  0.25326045  0.11041459  0.20133115  1
  O  O28  1  0.28360509  0.50000112  0.00000184  1
  O  O29  1  0.71639694  -0.00000014  0.49999872  1
  O  O30  1  0.71639491  0.50000119  0.00000192  1
  O  O31  1  0.28360319  -0.00000017  0.49999872  1
