# generated using pymatgen
data_Nd3Si2ClO8
_symmetry_space_group_name_H-M   'P 1'
_cell_length_a   6.39475442
_cell_length_b   7.74903337
_cell_length_c   8.74679845
_cell_angle_alpha   97.61416315
_cell_angle_beta   90.00000000
_cell_angle_gamma   114.36929079
_symmetry_Int_Tables_number   1
_chemical_formula_structural   Nd3Si2ClO8
_chemical_formula_sum   'Nd6 Si4 Cl2 O16'
_cell_volume   390.61566832
_cell_formula_units_Z   2
loop_
 _symmetry_equiv_pos_site_id
 _symmetry_equiv_pos_as_xyz
  1  'x, y, z'
loop_
 _atom_site_type_symbol
 _atom_site_label
 _atom_site_symmetry_multiplicity
 _atom_site_fract_x
 _atom_site_fract_y
 _atom_site_fract_z
 _atom_site_occupancy
  Nd  Nd0  1  0.79049276  0.37062670  0.17101299  1
  Nd  Nd1  1  0.41986506  0.62937330  0.32898701  1
  Nd  Nd2  1  0.58013494  0.37062670  0.67101299  1
  Nd  Nd3  1  0.92590795  0.00000000  0.75000000  1
  Nd  Nd4  1  0.20950724  0.62937330  0.82898701  1
  Nd  Nd5  1  0.07409205  0.00000000  0.25000000  1
  Si  Si6  1  0.21222858  0.31604679  0.02511433  1
  Si  Si7  1  0.10381920  0.31604679  0.52511433  1
  Si  Si8  1  0.89618080  0.68395321  0.47488567  1
  Si  Si9  1  0.78777142  0.68395321  0.97488567  1
  Cl  Cl10  1  0.47453730  0.00000000  0.75000000  1
  Cl  Cl11  1  0.52546270  0.00000000  0.25000000  1
  O  O12  1  0.95829510  0.69124296  0.65554323  1
  O  O13  1  0.09488279  0.71234336  0.35483762  1
  O  O14  1  0.04170490  0.30875704  0.34445677  1
  O  O15  1  0.31925726  0.52375545  0.58122728  1
  O  O16  1  0.94978661  0.15423119  0.03183456  1
  O  O17  1  0.20449819  0.52375545  0.08122728  1
  O  O18  1  0.05021339  0.84576881  0.96816544  1
  O  O19  1  0.38253843  0.28765664  0.14516238  1
  O  O20  1  0.26705114  0.30875704  0.84445677  1
  O  O21  1  0.61746157  0.71234336  0.85483762  1
  O  O22  1  0.79555442  0.84576881  0.46816544  1
  O  O23  1  0.79550181  0.47624455  0.91877272  1
  O  O24  1  0.90511721  0.28765664  0.64516238  1
  O  O25  1  0.68074274  0.47624455  0.41877272  1
  O  O26  1  0.73294886  0.69124296  0.15554323  1
  O  O27  1  0.20444558  0.15423119  0.53183456  1
