# generated using pymatgen
data_RbP(OF)2
_symmetry_space_group_name_H-M   'P 1'
_cell_length_a   6.56920861
_cell_length_b   7.64958572
_cell_length_c   7.88428112
_cell_angle_alpha   90.00000000
_cell_angle_beta   90.00000000
_cell_angle_gamma   90.00000000
_symmetry_Int_Tables_number   1
_chemical_formula_structural   RbP(OF)2
_chemical_formula_sum   'Rb4 P4 O8 F8'
_cell_volume   396.19872174
_cell_formula_units_Z   4
loop_
 _symmetry_equiv_pos_site_id
 _symmetry_equiv_pos_as_xyz
  1  'x, y, z'
loop_
 _atom_site_type_symbol
 _atom_site_label
 _atom_site_symmetry_multiplicity
 _atom_site_fract_x
 _atom_site_fract_y
 _atom_site_fract_z
 _atom_site_occupancy
  Rb  Rb0  1  0.25000000  0.35572574  0.63501613  1
  Rb  Rb1  1  0.75000000  0.85572574  0.86498387  1
  Rb  Rb2  1  0.75000000  0.64427426  0.36498387  1
  Rb  Rb3  1  0.25000000  0.14427426  0.13501613  1
  P  P4  1  0.75000000  0.31609023  0.88372691  1
  P  P5  1  0.25000000  0.68390977  0.11627309  1
  P  P6  1  0.25000000  0.81609023  0.61627309  1
  P  P7  1  0.75000000  0.18390977  0.38372691  1
  O  O8  1  0.94634428  0.27662241  0.38344946  1
  O  O9  1  0.44634428  0.77662241  0.11655054  1
  O  O10  1  0.55365572  0.22337759  0.88344946  1
  O  O11  1  0.94634428  0.22337759  0.88344946  1
  O  O12  1  0.55365572  0.27662241  0.38344946  1
  O  O13  1  0.44634428  0.72337759  0.61655054  1
  O  O14  1  0.05365572  0.77662241  0.11655054  1
  O  O15  1  0.05365572  0.72337759  0.61655054  1
  F  F16  1  0.75000000  0.45251495  0.73351147  1
  F  F17  1  0.75000000  0.04508260  0.53183995  1
  F  F18  1  0.25000000  0.95251495  0.76648853  1
  F  F19  1  0.25000000  0.54748505  0.26648853  1
  F  F20  1  0.75000000  0.04748505  0.23351147  1
  F  F21  1  0.25000000  0.95491740  0.46816005  1
  F  F22  1  0.75000000  0.45491740  0.03183995  1
  F  F23  1  0.25000000  0.54508260  0.96816005  1
