# generated using pymatgen
data_Eu2(MoO4)3
_symmetry_space_group_name_H-M   'P 1'
_cell_length_a   6.82386190
_cell_length_b   6.82386190
_cell_length_c   11.66678392
_cell_angle_alpha   79.69946803
_cell_angle_beta   79.69946803
_cell_angle_gamma   112.99011071
_symmetry_Int_Tables_number   1
_chemical_formula_structural   Eu2(MoO4)3
_chemical_formula_sum   'Eu4 Mo6 O24'
_cell_volume   473.14919821
_cell_formula_units_Z   2
loop_
 _symmetry_equiv_pos_site_id
 _symmetry_equiv_pos_as_xyz
  1  'x, y, z'
loop_
 _atom_site_type_symbol
 _atom_site_label
 _atom_site_symmetry_multiplicity
 _atom_site_fract_x
 _atom_site_fract_y
 _atom_site_fract_z
 _atom_site_occupancy
  Eu  Eu0  1  0.45187035  0.19954212  0.09009684  1
  Eu  Eu1  1  0.80045788  0.54812965  0.40990316  1
  Eu  Eu2  1  0.54812965  0.80045788  0.90990316  1
  Eu  Eu3  1  0.19954212  0.45187035  0.59009684  1
  Mo  Mo4  1  0.62111188  0.37888812  0.75000000  1
  Mo  Mo5  1  0.37888812  0.62111188  0.25000000  1
  Mo  Mo6  1  0.97016933  0.70037008  0.06752508  1
  Mo  Mo7  1  0.29962992  0.02983067  0.43247492  1
  Mo  Mo8  1  0.02983067  0.29962992  0.93247492  1
  Mo  Mo9  1  0.70037008  0.97016933  0.56752508  1
  O  O10  1  0.55414094  0.47285221  0.61389060  1
  O  O11  1  0.52714779  0.44585906  0.88610940  1
  O  O12  1  0.44585906  0.52714779  0.38610940  1
  O  O13  1  0.47285221  0.55414094  0.11389060  1
  O  O14  1  0.88541179  0.82130020  0.95336076  1
  O  O15  1  0.17869980  0.11458821  0.54663924  1
  O  O16  1  0.11458821  0.17869980  0.04663924  1
  O  O17  1  0.82130020  0.88541179  0.45336076  1
  O  O18  1  0.26626912  0.15048399  0.29556659  1
  O  O19  1  0.84951601  0.73373088  0.20443341  1
  O  O20  1  0.73373088  0.84951601  0.70443341  1
  O  O21  1  0.15048399  0.26626912  0.79556659  1
  O  O22  1  0.16904507  0.59351265  0.90701236  1
  O  O23  1  0.40648735  0.83095493  0.59298764  1
  O  O24  1  0.83095493  0.40648735  0.09298764  1
  O  O25  1  0.59351265  0.16904507  0.40701236  1
  O  O26  1  0.48760607  0.90817351  0.22052457  1
  O  O27  1  0.09182649  0.51239393  0.27947543  1
  O  O28  1  0.51239393  0.09182649  0.77947543  1
  O  O29  1  0.90817351  0.48760607  0.72052457  1
  O  O30  1  0.85087272  0.26963434  0.54614285  1
  O  O31  1  0.73036566  0.14912728  0.95385715  1
  O  O32  1  0.14912728  0.73036566  0.45385715  1
  O  O33  1  0.26963434  0.85087272  0.04614285  1
