# generated using pymatgen
data_U2PdS4
_symmetry_space_group_name_H-M   'P 1'
_cell_length_a   8.51616139
_cell_length_b   7.82588020
_cell_length_c   6.81877756
_cell_angle_alpha   70.73373500
_cell_angle_beta   60.16704123
_cell_angle_gamma   49.09922377
_symmetry_Int_Tables_number   1
_chemical_formula_structural   U2PdS4
_chemical_formula_sum   'U4 Pd2 S8'
_cell_volume   297.96567096
_cell_formula_units_Z   2
loop_
 _symmetry_equiv_pos_site_id
 _symmetry_equiv_pos_as_xyz
  1  'x, y, z'
loop_
 _atom_site_type_symbol
 _atom_site_label
 _atom_site_symmetry_multiplicity
 _atom_site_fract_x
 _atom_site_fract_y
 _atom_site_fract_z
 _atom_site_occupancy
  U  U0  1  0.41753156  0.53199106  0.17751262  1
  U  U1  1  0.87296476  0.17751262  0.53199106  1
  U  U2  1  0.07248738  0.37703524  0.83246844  1
  U  U3  1  0.71800894  0.83246844  0.37703524  1
  Pd  Pd4  1  0.24968329  0.25031671  0.25031671  1
  Pd  Pd5  1  -0.00031671  0.00031671  0.00031671  1
  S  S6  1  0.70048078  0.55275366  0.23872711  1
  S  S7  1  0.50803845  0.23872711  0.55275366  1
  S  S8  1  0.01127289  0.74196155  0.54951922  1
  S  S9  1  0.69724634  0.54951922  0.74196155  1
  S  S10  1  0.13466282  0.58921282  0.02708602  1
  S  S11  1  0.24903834  0.02708602  0.58921282  1
  S  S12  1  0.66078718  0.11533718  0.00096166  1
  S  S13  1  0.22291398  0.00096166  0.11533718  1
