# generated using pymatgen
data_SrCrF6
_symmetry_space_group_name_H-M   'P 1'
_cell_length_a   4.69051399
_cell_length_b   4.69051399
_cell_length_c   4.69051406
_cell_angle_alpha   98.49940045
_cell_angle_beta   98.49940045
_cell_angle_gamma   98.49938598
_symmetry_Int_Tables_number   1
_chemical_formula_structural   SrCrF6
_chemical_formula_sum   'Sr1 Cr1 F6'
_cell_volume   99.41168854
_cell_formula_units_Z   1
loop_
 _symmetry_equiv_pos_site_id
 _symmetry_equiv_pos_as_xyz
  1  'x, y, z'
loop_
 _atom_site_type_symbol
 _atom_site_label
 _atom_site_symmetry_multiplicity
 _atom_site_fract_x
 _atom_site_fract_y
 _atom_site_fract_z
 _atom_site_occupancy
  Sr  Sr0  1  0.50000000  0.50000000  0.50000000  1
  Cr  Cr1  1  0.00000000  -0.00000000  -0.00000000  1
  F  F2  1  0.72056073  0.72056073  0.07691245  1
  F  F3  1  0.07691245  0.72056073  0.72056073  1
  F  F4  1  0.92308755  0.27943927  0.27943927  1
  F  F5  1  0.27943927  0.27943927  0.92308755  1
  F  F6  1  0.27943927  0.92308755  0.27943927  1
  F  F7  1  0.72056073  0.07691245  0.72056073  1
