# generated using pymatgen
data_ErB2Ir3
_symmetry_space_group_name_H-M   'P 1'
_cell_length_a   3.14622799
_cell_length_b   5.41564346
_cell_length_c   5.41633911
_cell_angle_alpha   60.00425245
_cell_angle_beta   89.99993072
_cell_angle_gamma   89.99985446
_symmetry_Int_Tables_number   1
_chemical_formula_structural   ErB2Ir3
_chemical_formula_sum   'Er1 B2 Ir3'
_cell_volume   79.92733659
_cell_formula_units_Z   1
loop_
 _symmetry_equiv_pos_site_id
 _symmetry_equiv_pos_as_xyz
  1  'x, y, z'
loop_
 _atom_site_type_symbol
 _atom_site_label
 _atom_site_symmetry_multiplicity
 _atom_site_fract_x
 _atom_site_fract_y
 _atom_site_fract_z
 _atom_site_occupancy
  Er  Er0  1  0.00000000  -0.00000000  0.00000000  1
  B  B1  1  0.00000000  0.66667820  0.66664360  1
  B  B2  1  -0.00000000  0.33332180  0.33335640  1
  Ir  Ir3  1  0.50000000  -0.00000000  0.50000000  1
  Ir  Ir4  1  0.50000000  0.50000000  0.00000000  1
  Ir  Ir5  1  0.50000000  0.50000000  0.50000000  1
