# generated using pymatgen
data_DyAl2Ni
_symmetry_space_group_name_H-M   'P 1'
_cell_length_a   4.01816168
_cell_length_b   5.49429294
_cell_length_c   6.83750295
_cell_angle_alpha   90.00000000
_cell_angle_beta   90.00000000
_cell_angle_gamma   111.44863380
_symmetry_Int_Tables_number   1
_chemical_formula_structural   DyAl2Ni
_chemical_formula_sum   'Dy2 Al4 Ni2'
_cell_volume   140.49724703
_cell_formula_units_Z   2
loop_
 _symmetry_equiv_pos_site_id
 _symmetry_equiv_pos_as_xyz
  1  'x, y, z'
loop_
 _atom_site_type_symbol
 _atom_site_label
 _atom_site_symmetry_multiplicity
 _atom_site_fract_x
 _atom_site_fract_y
 _atom_site_fract_z
 _atom_site_occupancy
  Dy  Dy0  1  0.05960424  0.11920948  0.75000000  1
  Dy  Dy1  1  0.94039576  0.88079052  0.25000000  1
  Al  Al2  1  0.66076777  0.32153654  0.44482725  1
  Al  Al3  1  0.33923223  0.67846346  0.94482725  1
  Al  Al4  1  0.33923223  0.67846346  0.55517275  1
  Al  Al5  1  0.66076777  0.32153654  0.05517275  1
  Ni  Ni6  1  0.21556467  0.43113035  0.25000000  1
  Ni  Ni7  1  0.78443533  0.56886965  0.75000000  1
