# generated using pymatgen
data_Nb2Pd3Se8
_symmetry_space_group_name_H-M   'P 1'
_cell_length_a   3.60023772
_cell_length_b   10.96121205
_cell_length_c   15.38627887
_cell_angle_alpha   90.00000000
_cell_angle_beta   90.00000000
_cell_angle_gamma   90.00000000
_symmetry_Int_Tables_number   1
_chemical_formula_structural   Nb2Pd3Se8
_chemical_formula_sum   'Nb4 Pd6 Se16'
_cell_volume   607.18824729
_cell_formula_units_Z   2
loop_
 _symmetry_equiv_pos_site_id
 _symmetry_equiv_pos_as_xyz
  1  'x, y, z'
loop_
 _atom_site_type_symbol
 _atom_site_label
 _atom_site_symmetry_multiplicity
 _atom_site_fract_x
 _atom_site_fract_y
 _atom_site_fract_z
 _atom_site_occupancy
  Nb  Nb0  1  0.50000000  0.79515464  0.87989129  1
  Nb  Nb1  1  0.50000000  0.20484536  0.12010871  1
  Nb  Nb2  1  0.50000000  0.29515464  0.62010871  1
  Nb  Nb3  1  0.50000000  0.70484536  0.37989129  1
  Pd  Pd4  1  0.00000000  0.00000000  -0.00000000  1
  Pd  Pd5  1  -0.00000000  0.50000000  0.50000000  1
  Pd  Pd6  1  0.00000000  0.63269497  0.77982895  1
  Pd  Pd7  1  -0.00000000  0.36730503  0.22017105  1
  Pd  Pd8  1  -0.00000000  0.13269497  0.72017105  1
  Pd  Pd9  1  -0.00000000  0.86730503  0.27982895  1
  Se  Se10  1  -0.00000000  0.77546654  0.00401256  1
  Se  Se11  1  -0.00000000  0.22453346  0.99598744  1
  Se  Se12  1  0.00000000  0.27546654  0.49598744  1
  Se  Se13  1  -0.00000000  0.72453346  0.50401256  1
  Se  Se14  1  -0.00000000  0.96427052  0.84316377  1
  Se  Se15  1  -0.00000000  0.03572948  0.15683623  1
  Se  Se16  1  0.00000000  0.46427052  0.65683623  1
  Se  Se17  1  0.00000000  0.53572948  0.34316377  1
  Se  Se18  1  0.50000000  0.75903193  0.71511671  1
  Se  Se19  1  0.50000000  0.24096807  0.28488329  1
  Se  Se20  1  0.50000000  0.25903193  0.78488329  1
  Se  Se21  1  0.50000000  0.74096807  0.21511671  1
  Se  Se22  1  0.50000000  0.55999482  0.87793063  1
  Se  Se23  1  0.50000000  0.44000518  0.12206937  1
  Se  Se24  1  0.50000000  0.05999482  0.62206937  1
  Se  Se25  1  0.50000000  0.94000518  0.37793063  1
