# generated using pymatgen
data_Ba(AsPd)2
_symmetry_space_group_name_H-M   'P 1'
_cell_length_a   4.53803235
_cell_length_b   4.53803162
_cell_length_c   10.85961738
_cell_angle_alpha   101.93649127
_cell_angle_beta   101.93649256
_cell_angle_gamma   90.13309882
_symmetry_Int_Tables_number   1
_chemical_formula_structural   Ba(AsPd)2
_chemical_formula_sum   'Ba2 As4 Pd4'
_cell_volume   213.83555367
_cell_formula_units_Z   2
loop_
 _symmetry_equiv_pos_site_id
 _symmetry_equiv_pos_as_xyz
  1  'x, y, z'
loop_
 _atom_site_type_symbol
 _atom_site_label
 _atom_site_symmetry_multiplicity
 _atom_site_fract_x
 _atom_site_fract_y
 _atom_site_fract_z
 _atom_site_occupancy
  Ba  Ba0  1  0.62399216  0.62399216  0.24748037  1
  Ba  Ba1  1  0.37599366  0.37599366  0.75253038  1
  As  As2  1  0.25018067  0.74978702  0.49997418  1
  As  As3  1  0.93431086  0.93431086  0.86766287  1
  As  As4  1  0.06573229  0.06573229  0.13243806  1
  As  As5  1  0.74978702  0.25018067  0.49997418  1
  Pd  Pd6  1  0.50003432  0.00002182  0.00001787  1
  Pd  Pd7  1  0.19636126  0.19636126  0.39155279  1
  Pd  Pd8  1  0.00002182  0.50003432  0.00001787  1
  Pd  Pd9  1  0.80358492  0.80358492  0.60835242  1
