# generated using pymatgen
data_Ca3GaAs3
_symmetry_space_group_name_H-M   'P 1'
_cell_length_a   4.20101051
_cell_length_b   12.21406805
_cell_length_c   13.44415266
_cell_angle_alpha   90.00000000
_cell_angle_beta   90.00000000
_cell_angle_gamma   90.00000000
_symmetry_Int_Tables_number   1
_chemical_formula_structural   Ca3GaAs3
_chemical_formula_sum   'Ca12 Ga4 As12'
_cell_volume   689.83867457
_cell_formula_units_Z   4
loop_
 _symmetry_equiv_pos_site_id
 _symmetry_equiv_pos_as_xyz
  1  'x, y, z'
loop_
 _atom_site_type_symbol
 _atom_site_label
 _atom_site_symmetry_multiplicity
 _atom_site_fract_x
 _atom_site_fract_y
 _atom_site_fract_z
 _atom_site_occupancy
  Ca  Ca0  1  0.75000000  0.22758607  0.21587201  1
  Ca  Ca1  1  0.25000000  0.77241393  0.78412799  1
  Ca  Ca2  1  0.75000000  0.72758607  0.28412799  1
  Ca  Ca3  1  0.25000000  0.27241393  0.71587201  1
  Ca  Ca4  1  0.75000000  0.93654203  0.10877014  1
  Ca  Ca5  1  0.25000000  0.06345797  0.89122986  1
  Ca  Ca6  1  0.75000000  0.43654203  0.39122986  1
  Ca  Ca7  1  0.25000000  0.56345797  0.60877014  1
  Ca  Ca8  1  0.75000000  0.14819303  0.50128962  1
  Ca  Ca9  1  0.25000000  0.85180697  0.49871038  1
  Ca  Ca10  1  0.75000000  0.64819303  0.99871038  1
  Ca  Ca11  1  0.25000000  0.35180697  0.00128962  1
  Ga  Ga12  1  0.75000000  0.93641303  0.70226725  1
  Ga  Ga13  1  0.25000000  0.06358697  0.29773275  1
  Ga  Ga14  1  0.75000000  0.43641303  0.79773275  1
  Ga  Ga15  1  0.25000000  0.56358697  0.20226725  1
  As  As16  1  0.75000000  0.89289197  0.88633179  1
  As  As17  1  0.25000000  0.10710803  0.11366821  1
  As  As18  1  0.75000000  0.39289197  0.61366821  1
  As  As19  1  0.25000000  0.60710803  0.38633179  1
  As  As20  1  0.75000000  0.75045334  0.62244395  1
  As  As21  1  0.25000000  0.24954666  0.37755605  1
  As  As22  1  0.75000000  0.25045334  0.87755605  1
  As  As23  1  0.25000000  0.74954666  0.12244395  1
  As  As24  1  0.75000000  0.45893215  0.14954435  1
  As  As25  1  0.25000000  0.54106785  0.85045565  1
  As  As26  1  0.75000000  0.95893215  0.35045565  1
  As  As27  1  0.25000000  0.04106785  0.64954435  1
