# generated using pymatgen
data_Tm2Ni12P7
_symmetry_space_group_name_H-M   'P 1'
_cell_length_a   8.95021444
_cell_length_b   8.95019988
_cell_length_c   3.64485851
_cell_angle_alpha   89.99999178
_cell_angle_beta   90.00000702
_cell_angle_gamma   119.99714151
_symmetry_Int_Tables_number   1
_chemical_formula_structural   Tm2Ni12P7
_chemical_formula_sum   'Tm2 Ni12 P7'
_cell_volume   252.86573849
_cell_formula_units_Z   1
loop_
 _symmetry_equiv_pos_site_id
 _symmetry_equiv_pos_as_xyz
  1  'x, y, z'
loop_
 _atom_site_type_symbol
 _atom_site_label
 _atom_site_symmetry_multiplicity
 _atom_site_fract_x
 _atom_site_fract_y
 _atom_site_fract_z
 _atom_site_occupancy
  Tm  Tm0  1  0.66666538  0.33334083  0.49999997  1
  Tm  Tm1  1  0.33333058  0.66666012  -0.00000004  1
  Ni  Ni2  1  0.43438022  0.06220033  -0.00000047  1
  Ni  Ni3  1  0.62782104  0.56562507  -0.00000030  1
  Ni  Ni4  1  0.93779175  0.37216262  -0.00000004  1
  Ni  Ni5  1  0.15266318  0.27517933  -0.00000007  1
  Ni  Ni6  1  0.12251130  0.84734436  0.00000016  1
  Ni  Ni7  1  0.72482231  0.87749250  -0.00000018  1
  Ni  Ni8  1  0.38143188  0.43183615  0.49999997  1
  Ni  Ni9  1  0.05040573  0.61856930  0.50000009  1
  Ni  Ni10  1  0.56816789  0.94959168  0.49999986  1
  Ni  Ni11  1  0.21562773  0.09390425  0.49999999  1
  Ni  Ni12  1  0.87827518  0.78437648  0.50000151  1
  Ni  Ni13  1  0.90611282  0.12170938  0.50000089  1
  P  P14  1  0.00001291  -0.00000133  0.00000000  1
  P  P15  1  0.40857234  0.29528733  -0.00000009  1
  P  P16  1  0.88671973  0.59144330  -0.00000008  1
  P  P17  1  0.70468956  0.11327847  -0.00000006  1
  P  P18  1  0.11141903  0.40599292  0.50000009  1
  P  P19  1  0.29456238  0.88859464  0.49999986  1
  P  P20  1  0.59402005  0.70541226  0.49999994  1
