# generated using pymatgen
data_Ca(PO3)2
_symmetry_space_group_name_H-M   'P 1'
_cell_length_a   6.71905411
_cell_length_b   12.09801998
_cell_length_c   12.09801941
_cell_angle_alpha   111.29457932
_cell_angle_beta   92.53594132
_cell_angle_gamma   92.53593813
_symmetry_Int_Tables_number   1
_chemical_formula_structural   Ca(PO3)2
_chemical_formula_sum   'Ca8 P16 O48'
_cell_volume   913.45160228
_cell_formula_units_Z   8
loop_
 _symmetry_equiv_pos_site_id
 _symmetry_equiv_pos_as_xyz
  1  'x, y, z'
loop_
 _atom_site_type_symbol
 _atom_site_label
 _atom_site_symmetry_multiplicity
 _atom_site_fract_x
 _atom_site_fract_y
 _atom_site_fract_z
 _atom_site_occupancy
  Ca  Ca0  1  0.31535136  0.13815520  0.51841512  1
  Ca  Ca1  1  0.79986375  0.63866804  0.53061025  1
  Ca  Ca2  1  0.81303373  0.15002488  0.01800998  1
  Ca  Ca3  1  0.29596018  0.64639793  0.03086896  1
  Ca  Ca4  1  0.79596018  0.03086896  0.64639793  1
  Ca  Ca5  1  0.31303373  0.01800998  0.15002488  1
  Ca  Ca6  1  0.29986375  0.53061025  0.63866804  1
  Ca  Ca7  1  0.81535136  0.51841512  0.13815520  1
  P  P8  1  0.49606318  0.45722154  0.34787346  1
  P  P9  1  0.97550779  0.95476544  0.35882040  1
  P  P10  1  0.43072243  0.00043272  0.86401146  1
  P  P11  1  0.17689327  0.82231702  0.68183676  1
  P  P12  1  0.46508094  0.83784615  0.49951481  1
  P  P13  1  0.64004072  0.32992474  0.70922160  1
  P  P14  1  0.93072243  0.86401146  0.00043272  1
  P  P15  1  0.63549122  0.21458193  0.32573654  1
  P  P16  1  0.16305787  0.18036947  0.82694323  1
  P  P17  1  0.67689327  0.68183676  0.82231702  1
  P  P18  1  0.13549122  0.32573654  0.21458193  1
  P  P19  1  0.66305787  0.82694323  0.18036947  1
  P  P20  1  0.47550779  0.35882040  0.95476544  1
  P  P21  1  0.14004072  0.70922160  0.32992474  1
  P  P22  1  0.99606318  0.34787346  0.45722154  1
  P  P23  1  0.96508094  0.49951481  0.83784615  1
  O  O24  1  0.59635983  0.28497326  0.00248736  1
  O  O25  1  0.53681831  0.67007392  0.90824529  1
  O  O26  1  0.53943769  0.40311065  0.65204049  1
  O  O27  1  0.55064443  0.35507516  0.83299828  1
  O  O28  1  0.59647783  0.66978890  0.70135551  1
  O  O29  1  0.44648914  0.84490057  0.16794500  1
  O  O30  1  0.86904272  0.37513971  0.74773955  1
  O  O31  1  0.13600759  0.63991741  0.19988050  1
  O  O32  1  0.05064443  0.83299828  0.35507516  1
  O  O33  1  0.53017150  0.33583046  0.36384664  1
  O  O34  1  0.36904272  0.74773955  0.37513971  1
  O  O35  1  0.63600759  0.19988050  0.63991741  1
  O  O36  1  0.58514610  0.01426848  0.78583517  1
  O  O37  1  0.99536456  0.34865273  0.12793170  1
  O  O38  1  0.31905718  0.42310190  0.24796956  1
  O  O39  1  0.03943769  0.65204049  0.40311065  1
  O  O40  1  0.94648914  0.16794500  0.84490057  1
  O  O41  1  0.50315964  0.01255476  0.98633665  1
  O  O42  1  0.81905718  0.24796956  0.42310190  1
  O  O43  1  0.25108062  0.30611033  0.92017427  1
  O  O44  1  0.97358684  0.03483012  0.48550751  1
  O  O45  1  0.17594166  0.51350809  0.81002041  1
  O  O46  1  0.26664504  0.09328162  0.87917456  1
  O  O47  1  0.80494795  0.80634352  0.87634308  1
  O  O48  1  0.09635983  0.00248736  0.28497326  1
  O  O49  1  0.09647783  0.70135551  0.66978890  1
  O  O50  1  0.76664504  0.87917456  0.09328162  1
  O  O51  1  0.00315964  0.98633665  0.01255476  1
  O  O52  1  0.75108062  0.92017427  0.30611033  1
  O  O53  1  0.03017150  0.36384664  0.33583046  1
  O  O54  1  0.21812457  0.16520274  0.70608087  1
  O  O55  1  0.34482549  0.80111515  0.59049782  1
  O  O56  1  0.70601437  0.17973753  0.20475254  1
  O  O57  1  0.67354544  0.50300798  0.30531091  1
  O  O58  1  0.67594166  0.81002041  0.51350809  1
  O  O59  1  0.84482549  0.59049782  0.80111515  1
  O  O60  1  0.17354544  0.30531091  0.50300798  1
  O  O61  1  0.20601437  0.20475254  0.17973753  1
  O  O62  1  0.30494795  0.87634308  0.80634352  1
  O  O63  1  0.43684393  0.53816783  0.46556341  1
  O  O64  1  0.93684393  0.46556341  0.53816783  1
  O  O65  1  0.08514610  0.78583517  0.01426848  1
  O  O66  1  0.47358684  0.48550751  0.03483012  1
  O  O67  1  0.49536456  0.12793170  0.34865273  1
  O  O68  1  0.44005014  0.96330871  0.51373077  1
  O  O69  1  0.71812457  0.70608087  0.16520274  1
  O  O70  1  0.03681831  0.90824529  0.67007392  1
  O  O71  1  0.94005014  0.51373077  0.96330871  1
