# generated using pymatgen
data_Co2(SnSe)3
_symmetry_space_group_name_H-M   'P 1'
_cell_length_a   8.72582154
_cell_length_b   8.72582154
_cell_length_c   8.72582075
_cell_angle_alpha   90.11474705
_cell_angle_beta   90.11474705
_cell_angle_gamma   90.11474544
_symmetry_Int_Tables_number   1
_chemical_formula_structural   Co2(SnSe)3
_chemical_formula_sum   'Co8 Sn12 Se12'
_cell_volume   664.37965381
_cell_formula_units_Z   4
loop_
 _symmetry_equiv_pos_site_id
 _symmetry_equiv_pos_as_xyz
  1  'x, y, z'
loop_
 _atom_site_type_symbol
 _atom_site_label
 _atom_site_symmetry_multiplicity
 _atom_site_fract_x
 _atom_site_fract_y
 _atom_site_fract_z
 _atom_site_occupancy
  Co  Co0  1  0.25883961  0.76131272  0.75504439  1
  Co  Co1  1  0.24495561  0.74116039  0.23868728  1
  Co  Co2  1  0.76131272  0.75504439  0.25883961  1
  Co  Co3  1  0.23868728  0.24495561  0.74116039  1
  Co  Co4  1  0.25730390  0.25730390  0.25730390  1
  Co  Co5  1  0.74269610  0.74269610  0.74269610  1
  Co  Co6  1  0.75504439  0.25883961  0.76131272  1
  Co  Co7  1  0.74116039  0.23868728  0.24495561  1
  Sn  Sn8  1  0.67265718  0.84386167  0.00145444  1
  Sn  Sn9  1  0.50013991  0.82792803  0.34356938  1
  Sn  Sn10  1  0.32734282  0.15613833  0.99854556  1
  Sn  Sn11  1  0.17207197  0.65643062  0.49986009  1
  Sn  Sn12  1  0.00145444  0.67265718  0.84386167  1
  Sn  Sn13  1  0.99854556  0.32734282  0.15613833  1
  Sn  Sn14  1  0.82792803  0.34356938  0.50013991  1
  Sn  Sn15  1  0.49986009  0.17207197  0.65643062  1
  Sn  Sn16  1  0.34356938  0.50013991  0.82792803  1
  Sn  Sn17  1  0.15613833  0.99854556  0.32734282  1
  Sn  Sn18  1  0.65643062  0.49986009  0.17207197  1
  Sn  Sn19  1  0.84386167  0.00145444  0.67265718  1
  Se  Se20  1  0.99872696  0.65965440  0.15470207  1
  Se  Se21  1  0.34034560  0.84529793  0.00127304  1
  Se  Se22  1  0.15470207  0.99872696  0.65965440  1
  Se  Se23  1  0.34555440  0.49693669  0.15940771  1
  Se  Se24  1  0.49693669  0.15940771  0.34555440  1
  Se  Se25  1  0.50306331  0.84059229  0.65444560  1
  Se  Se26  1  0.65444560  0.50306331  0.84059229  1
  Se  Se27  1  0.84059229  0.65444560  0.50306331  1
  Se  Se28  1  0.00127304  0.34034560  0.84529793  1
  Se  Se29  1  0.65965440  0.15470207  0.99872696  1
  Se  Se30  1  0.15940771  0.34555440  0.49693669  1
  Se  Se31  1  0.84529793  0.00127304  0.34034560  1
