# generated using pymatgen
data_Tm3(CuGe)4
_symmetry_space_group_name_H-M   'P 1'
_cell_length_a   4.12482572
_cell_length_b   6.57155033
_cell_length_c   7.86453033
_cell_angle_alpha   114.68165629
_cell_angle_beta   105.21518773
_cell_angle_gamma   89.99452333
_symmetry_Int_Tables_number   1
_chemical_formula_structural   Tm3(CuGe)4
_chemical_formula_sum   'Tm3 Cu4 Ge4'
_cell_volume   185.45103057
_cell_formula_units_Z   1
loop_
 _symmetry_equiv_pos_site_id
 _symmetry_equiv_pos_as_xyz
  1  'x, y, z'
loop_
 _atom_site_type_symbol
 _atom_site_label
 _atom_site_symmetry_multiplicity
 _atom_site_fract_x
 _atom_site_fract_y
 _atom_site_fract_z
 _atom_site_occupancy
  Tm  Tm0  1  0.13012655  0.13008430  0.25983149  1
  Tm  Tm1  1  0.86987345  0.86991570  0.74016851  1
  Tm  Tm2  1  0.00000000  0.50000000  0.00000000  1
  Cu  Cu3  1  0.67206933  0.47940236  0.33969752  1
  Cu  Cu4  1  0.67184889  0.86075898  0.34075406  1
  Cu  Cu5  1  0.32815111  0.13924102  0.65924594  1
  Cu  Cu6  1  0.32793067  0.52059764  0.66030248  1
  Ge  Ge7  1  0.78200788  0.28356336  0.56643561  1
  Ge  Ge8  1  0.21799212  0.71643664  0.43356439  1
  Ge  Ge9  1  0.49982950  0.19195725  0.99965797  1
  Ge  Ge10  1  0.50017050  0.80804275  0.00034203  1
