# generated using pymatgen
data_Cs3Zr2I9
_symmetry_space_group_name_H-M   'P 1'
_cell_length_a   8.44522529
_cell_length_b   8.44514117
_cell_length_c   20.29055579
_cell_angle_alpha   89.99807881
_cell_angle_beta   90.00140379
_cell_angle_gamma   119.99828678
_symmetry_Int_Tables_number   1
_chemical_formula_structural   Cs3Zr2I9
_chemical_formula_sum   'Cs6 Zr4 I18'
_cell_volume   1253.28610636
_cell_formula_units_Z   2
loop_
 _symmetry_equiv_pos_site_id
 _symmetry_equiv_pos_as_xyz
  1  'x, y, z'
loop_
 _atom_site_type_symbol
 _atom_site_label
 _atom_site_symmetry_multiplicity
 _atom_site_fract_x
 _atom_site_fract_y
 _atom_site_fract_z
 _atom_site_occupancy
  Cs  Cs0  1  0.33332191  0.66668035  0.06688640  1
  Cs  Cs1  1  0.66665958  0.33333596  0.56690400  1
  Cs  Cs2  1  0.66665994  0.33334445  0.93308636  1
  Cs  Cs3  1  0.33331709  0.66668183  0.43312590  1
  Cs  Cs4  1  -0.00000656  0.00000548  0.25000391  1
  Cs  Cs5  1  -0.00000680  0.00001012  0.75000378  1
  Zr  Zr6  1  0.66666790  0.33331504  0.17163812  1
  Zr  Zr7  1  0.33333677  0.66670585  0.67169082  1
  Zr  Zr8  1  0.33335660  0.66668176  0.82831751  1
  Zr  Zr9  1  0.66664457  0.33336020  0.32837316  1
  I  I10  1  0.83003616  0.66004091  0.09037512  1
  I  I11  1  0.16977083  0.83016636  0.59044844  1
  I  I12  1  0.66027778  0.82998005  0.59046745  1
  I  I13  1  0.33992719  0.16993870  0.09035990  1
  I  I14  1  0.83001702  0.16989586  0.09042625  1
  I  I15  1  0.17004743  0.33993441  0.90956597  1
  I  I16  1  0.16984280  0.83020665  0.90948188  1
  I  I17  1  0.17005934  0.33975762  0.59047534  1
  I  I18  1  0.66019760  0.82997768  0.90953257  1
  I  I19  1  0.33987723  0.16994572  0.40963674  1
  I  I20  1  0.82998965  0.66010323  0.40962258  1
  I  I21  1  0.83003603  0.16992158  0.40962463  1
  I  I22  1  0.49682629  0.99366001  0.25001184  1
  I  I23  1  0.50319032  0.49681639  0.74999040  1
  I  I24  1  0.99362082  0.49680675  0.74995183  1
  I  I25  1  0.00631732  0.50314830  0.25002185  1
  I  I26  1  0.49682338  0.50318073  0.24999450  1
  I  I27  1  0.50319181  0.00639800  0.74998175  1
