# generated using pymatgen
data_CsCr5Se8
_symmetry_space_group_name_H-M   'P 1'
_cell_length_a   3.69347176
_cell_length_b   9.23124240
_cell_length_c   9.69896088
_cell_angle_alpha   104.41558632
_cell_angle_beta   100.98203300
_cell_angle_gamma   90.00316447
_symmetry_Int_Tables_number   1
_chemical_formula_structural   CsCr5Se8
_chemical_formula_sum   'Cs1 Cr5 Se8'
_cell_volume   314.02014562
_cell_formula_units_Z   1
loop_
 _symmetry_equiv_pos_site_id
 _symmetry_equiv_pos_as_xyz
  1  'x, y, z'
loop_
 _atom_site_type_symbol
 _atom_site_label
 _atom_site_symmetry_multiplicity
 _atom_site_fract_x
 _atom_site_fract_y
 _atom_site_fract_z
 _atom_site_occupancy
  Cs  Cs0  1  0.49999067  0.50000510  0.99999675  1
  Cr  Cr1  1  0.00001705  0.00000819  0.00000029  1
  Cr  Cr2  1  0.66006331  0.98172777  0.31954650  1
  Cr  Cr3  1  0.33992879  0.01827117  0.68043888  1
  Cr  Cr4  1  0.29526372  0.66545461  0.59048460  1
  Cr  Cr5  1  0.70470207  0.33454187  0.40952621  1
  Se  Se6  1  0.57599124  0.15209788  0.15126320  1
  Se  Se7  1  0.42403863  0.84790885  0.84874294  1
  Se  Se8  1  0.91116444  0.16506117  0.82368135  1
  Se  Se9  1  0.08883992  0.83493827  0.17629852  1
  Se  Se10  1  0.82792829  0.51132740  0.65600841  1
  Se  Se11  1  0.17205793  0.48866805  0.34399615  1
  Se  Se12  1  0.23945916  0.15803102  0.47824556  1
  Se  Se13  1  0.76055580  0.84195865  0.52177064  1
