# generated using pymatgen
data_Ce(SiAu)2
_symmetry_space_group_name_H-M   'P 1'
_cell_length_a   4.33562046
_cell_length_b   4.33562085
_cell_length_c   5.93266589
_cell_angle_alpha   111.43235277
_cell_angle_beta   111.43235340
_cell_angle_gamma   89.99999925
_symmetry_Int_Tables_number   1
_chemical_formula_structural   Ce(SiAu)2
_chemical_formula_sum   'Ce1 Si2 Au2'
_cell_volume   95.47577639
_cell_formula_units_Z   1
loop_
 _symmetry_equiv_pos_site_id
 _symmetry_equiv_pos_as_xyz
  1  'x, y, z'
loop_
 _atom_site_type_symbol
 _atom_site_label
 _atom_site_symmetry_multiplicity
 _atom_site_fract_x
 _atom_site_fract_y
 _atom_site_fract_z
 _atom_site_occupancy
  Ce  Ce0  1  0.00000000  -0.00000000  -0.00000000  1
  Si  Si1  1  0.61444579  0.61444579  0.22889058  1
  Si  Si2  1  0.38555421  0.38555421  0.77110942  1
  Au  Au3  1  0.75000000  0.25000000  0.50000000  1
  Au  Au4  1  0.25000000  0.75000000  0.50000000  1
