# generated using pymatgen
data_Sc3CoC4
_symmetry_space_group_name_H-M   'P 1'
_cell_length_a   3.43701864
_cell_length_b   4.32218057
_cell_length_c   6.57931040
_cell_angle_alpha   109.17580164
_cell_angle_beta   105.14120883
_cell_angle_gamma   90.00000134
_symmetry_Int_Tables_number   1
_chemical_formula_structural   Sc3CoC4
_chemical_formula_sum   'Sc3 Co1 C4'
_cell_volume   88.71523936
_cell_formula_units_Z   1
loop_
 _symmetry_equiv_pos_site_id
 _symmetry_equiv_pos_as_xyz
  1  'x, y, z'
loop_
 _atom_site_type_symbol
 _atom_site_label
 _atom_site_symmetry_multiplicity
 _atom_site_fract_x
 _atom_site_fract_y
 _atom_site_fract_z
 _atom_site_occupancy
  Sc  Sc0  1  -0.00000000  0.50000000  -0.00000000  1
  Sc  Sc1  1  0.18816334  0.18816334  0.37632669  1
  Sc  Sc2  1  0.81183666  0.81183666  0.62367331  1
  Co  Co3  1  0.50000000  0.00000000  -0.00000000  1
  C  C4  1  0.37659486  0.20873318  0.75319073  1
  C  C5  1  0.62340514  0.79126682  0.24680927  1
  C  C6  1  0.62340514  0.45554445  0.24680927  1
  C  C7  1  0.37659486  0.54445555  0.75319073  1
