# generated using pymatgen
data_Nb5Ga3
_symmetry_space_group_name_H-M   'P 1'
_cell_length_a   5.08749337
_cell_length_b   7.73366651
_cell_length_c   7.73366530
_cell_angle_alpha   83.82799633
_cell_angle_beta   70.85708027
_cell_angle_gamma   70.85707865
_symmetry_Int_Tables_number   1
_chemical_formula_structural   Nb5Ga3
_chemical_formula_sum   'Nb10 Ga6'
_cell_volume   271.55996447
_cell_formula_units_Z   2
loop_
 _symmetry_equiv_pos_site_id
 _symmetry_equiv_pos_as_xyz
  1  'x, y, z'
loop_
 _atom_site_type_symbol
 _atom_site_label
 _atom_site_symmetry_multiplicity
 _atom_site_fract_x
 _atom_site_fract_y
 _atom_site_fract_z
 _atom_site_occupancy
  Nb  Nb0  1  0.57560791  0.70295798  0.14488701  1
  Nb  Nb1  1  0.25000000  0.49898025  0.50101975  1
  Nb  Nb2  1  0.07560791  0.14488701  0.70295798  1
  Nb  Nb3  1  0.92439209  0.85511299  0.29704202  1
  Nb  Nb4  1  0.75000000  0.50101975  0.49898025  1
  Nb  Nb5  1  0.72084617  0.85514383  0.70301023  1
  Nb  Nb6  1  0.42439209  0.29704202  0.85511299  1
  Nb  Nb7  1  0.77915383  0.29698977  0.14485617  1
  Nb  Nb8  1  0.27915383  0.14485617  0.29698977  1
  Nb  Nb9  1  0.22084617  0.70301023  0.85514383  1
  Ga  Ga10  1  0.16465371  0.50000829  0.16970649  1
  Ga  Ga11  1  0.25000000  0.00016924  0.99983076  1
  Ga  Ga12  1  0.66465371  0.16970649  0.50000829  1
  Ga  Ga13  1  0.83534629  0.49999171  0.83029351  1
  Ga  Ga14  1  0.75000000  0.99983076  0.00016924  1
  Ga  Ga15  1  0.33534629  0.83029351  0.49999171  1
