# generated using pymatgen
data_Tb2SnS5
_symmetry_space_group_name_H-M   'P 1'
_cell_length_a   3.81002083
_cell_length_b   7.75935277
_cell_length_c   11.32777656
_cell_angle_alpha   90.00000000
_cell_angle_beta   90.00000000
_cell_angle_gamma   90.00000000
_symmetry_Int_Tables_number   1
_chemical_formula_structural   Tb2SnS5
_chemical_formula_sum   'Tb4 Sn2 S10'
_cell_volume   334.88640785
_cell_formula_units_Z   2
loop_
 _symmetry_equiv_pos_site_id
 _symmetry_equiv_pos_as_xyz
  1  'x, y, z'
loop_
 _atom_site_type_symbol
 _atom_site_label
 _atom_site_symmetry_multiplicity
 _atom_site_fract_x
 _atom_site_fract_y
 _atom_site_fract_z
 _atom_site_occupancy
  Tb  Tb0  1  0.50000000  0.97205940  0.32692236  1
  Tb  Tb1  1  0.50000000  0.47205940  0.17307764  1
  Tb  Tb2  1  0.50000000  0.52794060  0.82692236  1
  Tb  Tb3  1  0.50000000  0.02794060  0.67307764  1
  Sn  Sn4  1  -0.00000000  0.50000000  0.50000000  1
  Sn  Sn5  1  -0.00000000  -0.00000000  0.00000000  1
  S  S6  1  0.50000000  0.66900800  0.59606212  1
  S  S7  1  0.00000000  0.17595180  0.19431912  1
  S  S8  1  0.50000000  0.16900800  0.90393788  1
  S  S9  1  0.00000000  -0.00000000  0.50000000  1
  S  S10  1  0.50000000  0.83099200  0.09606212  1
  S  S11  1  -0.00000000  0.67595180  0.30568088  1
  S  S12  1  -0.00000000  0.32404820  0.69431912  1
  S  S13  1  0.00000000  0.82404820  0.80568088  1
  S  S14  1  0.50000000  0.33099200  0.40393788  1
  S  S15  1  0.00000000  0.50000000  0.00000000  1
