# generated using pymatgen
data_Rh4Pb5
_symmetry_space_group_name_H-M   'P 1'
_cell_length_a   5.73195665
_cell_length_b   5.73195726
_cell_length_c   13.69057818
_cell_angle_alpha   96.13149307
_cell_angle_beta   96.13146721
_cell_angle_gamma   119.41349520
_symmetry_Int_Tables_number   1
_chemical_formula_structural   Rh4Pb5
_chemical_formula_sum   'Rh8 Pb10'
_cell_volume   382.94250881
_cell_formula_units_Z   2
loop_
 _symmetry_equiv_pos_site_id
 _symmetry_equiv_pos_as_xyz
  1  'x, y, z'
loop_
 _atom_site_type_symbol
 _atom_site_label
 _atom_site_symmetry_multiplicity
 _atom_site_fract_x
 _atom_site_fract_y
 _atom_site_fract_z
 _atom_site_occupancy
  Rh  Rh0  1  0.91578686  0.91578630  0.83127436  1
  Rh  Rh1  1  0.08421352  0.08421386  0.16872573  1
  Rh  Rh2  1  0.75005553  0.24994427  0.49999993  1
  Rh  Rh3  1  0.91863154  0.41840528  0.83691881  1
  Rh  Rh4  1  0.08136836  0.58159457  0.16308069  1
  Rh  Rh5  1  0.41840584  0.91863112  0.83691879  1
  Rh  Rh6  1  0.58159414  0.08136835  0.16308072  1
  Rh  Rh7  1  0.24994437  0.75005565  0.49999990  1
  Pb  Pb8  1  0.83609846  0.16390163  -0.00000009  1
  Pb  Pb9  1  0.99830373  0.33446915  0.33192125  1
  Pb  Pb10  1  0.41178753  0.41178729  0.82310906  1
  Pb  Pb11  1  0.16390146  0.83609828  -0.00000029  1
  Pb  Pb12  1  0.58821254  0.58821258  0.17689092  1
  Pb  Pb13  1  0.66553142  0.00169551  0.66807840  1
  Pb  Pb14  1  0.33446864  0.99830437  0.33192140  1
  Pb  Pb15  1  0.00169610  0.66553087  0.66807855  1
  Pb  Pb16  1  0.28591015  0.28590999  0.57158843  1
  Pb  Pb17  1  0.71408981  0.71408993  0.42841145  1
