# generated using pymatgen
data_In5AgSe8
_symmetry_space_group_name_H-M   'P 1'
_cell_length_a   5.84277409
_cell_length_b   5.84277409
_cell_length_c   11.94164035
_cell_angle_alpha   90.00000000
_cell_angle_beta   90.00000000
_cell_angle_gamma   90.00000000
_symmetry_Int_Tables_number   1
_chemical_formula_structural   In5AgSe8
_chemical_formula_sum   'In5 Ag1 Se8'
_cell_volume   407.66382654
_cell_formula_units_Z   1
loop_
 _symmetry_equiv_pos_site_id
 _symmetry_equiv_pos_as_xyz
  1  'x, y, z'
loop_
 _atom_site_type_symbol
 _atom_site_label
 _atom_site_symmetry_multiplicity
 _atom_site_fract_x
 _atom_site_fract_y
 _atom_site_fract_z
 _atom_site_occupancy
  In  In0  1  0.50000000  0.00000000  0.25410118  1
  In  In1  1  0.50000000  0.00000000  0.74589882  1
  In  In2  1  -0.00000000  0.50000000  0.74589882  1
  In  In3  1  -0.00000000  0.50000000  0.25410118  1
  In  In4  1  0.50000000  0.50000000  -0.00000000  1
  Ag  Ag5  1  -0.00000000  0.00000000  0.50000000  1
  Se  Se6  1  0.77181208  0.77181208  0.11312105  1
  Se  Se7  1  0.27121180  0.72878820  0.38080274  1
  Se  Se8  1  0.72878820  0.72878820  0.61919726  1
  Se  Se9  1  0.72878820  0.27121180  0.38080274  1
  Se  Se10  1  0.77181208  0.22818792  0.88687895  1
  Se  Se11  1  0.27121180  0.27121180  0.61919726  1
  Se  Se12  1  0.22818792  0.22818792  0.11312105  1
  Se  Se13  1  0.22818792  0.77181208  0.88687895  1
