# generated using pymatgen
data_SiO2
_symmetry_space_group_name_H-M   'P 1'
_cell_length_a   4.72569443
_cell_length_b   5.90186031
_cell_length_c   5.90185887
_cell_angle_alpha   94.54939276
_cell_angle_beta   90.00000000
_cell_angle_gamma   90.00000000
_symmetry_Int_Tables_number   1
_chemical_formula_structural   SiO2
_chemical_formula_sum   'Si4 O8'
_cell_volume   164.08651900
_cell_formula_units_Z   4
loop_
 _symmetry_equiv_pos_site_id
 _symmetry_equiv_pos_as_xyz
  1  'x, y, z'
loop_
 _atom_site_type_symbol
 _atom_site_label
 _atom_site_symmetry_multiplicity
 _atom_site_fract_x
 _atom_site_fract_y
 _atom_site_fract_z
 _atom_site_occupancy
  Si  Si0  1  0.36544391  0.02735315  0.34773169  1
  Si  Si1  1  0.86544391  0.97264685  0.65226831  1
  Si  Si2  1  0.13455609  0.65226831  0.97264685  1
  Si  Si3  1  0.63455609  0.34773169  0.02735315  1
  O  O4  1  0.39338637  0.48379125  0.89871249  1
  O  O5  1  0.60661363  0.89871249  0.48379125  1
  O  O6  1  0.00000000  0.74788470  0.74788470  1
  O  O7  1  0.89338637  0.51620875  0.10128751  1
  O  O8  1  0.10661363  0.10128751  0.51620875  1
  O  O9  1  0.25000000  0.86014494  0.13985506  1
  O  O10  1  0.50000000  0.25211530  0.25211530  1
  O  O11  1  0.75000000  0.13985506  0.86014494  1
