# generated using pymatgen
data_Nd(CoB)4
_symmetry_space_group_name_H-M   'P 1'
_cell_length_a   3.76907199
_cell_length_b   7.02301302
_cell_length_c   7.02300711
_cell_angle_alpha   89.99982566
_cell_angle_beta   90.00053365
_cell_angle_gamma   90.00015387
_symmetry_Int_Tables_number   1
_chemical_formula_structural   Nd(CoB)4
_chemical_formula_sum   'Nd2 Co8 B8'
_cell_volume   185.90069553
_cell_formula_units_Z   2
loop_
 _symmetry_equiv_pos_site_id
 _symmetry_equiv_pos_as_xyz
  1  'x, y, z'
loop_
 _atom_site_type_symbol
 _atom_site_label
 _atom_site_symmetry_multiplicity
 _atom_site_fract_x
 _atom_site_fract_y
 _atom_site_fract_z
 _atom_site_occupancy
  Nd  Nd0  1  0.24999422  0.25000987  0.24999908  1
  Nd  Nd1  1  0.74999934  0.74998943  0.75000399  1
  Co  Co2  1  0.64384047  0.13453206  0.60768907  1
  Co  Co3  1  0.14383880  0.10768227  0.86547320  1
  Co  Co4  1  0.64384010  0.36546493  0.89232241  1
  Co  Co5  1  0.35615897  0.86548574  0.39231243  1
  Co  Co6  1  0.85616316  0.89232079  0.13450878  1
  Co  Co7  1  0.35615570  0.63451931  0.10767407  1
  Co  Co8  1  0.14384026  0.39231606  0.63453134  1
  Co  Co9  1  0.85615788  0.60767966  0.36548104  1
  B  B10  1  0.85331782  0.54685397  0.08882552  1
  B  B11  1  0.85332419  0.95314243  0.41117381  1
  B  B12  1  0.35331880  0.91117322  0.04685600  1
  B  B13  1  0.14668357  0.04684873  0.58881870  1
  B  B14  1  0.14668106  0.45315476  0.91118446  1
  B  B15  1  0.64667870  0.41118645  0.54684710  1
  B  B16  1  0.64668655  0.08881919  0.95315344  1
  B  B17  1  0.35332041  0.58882213  0.45314657  1
