# generated using pymatgen
data_Dy2B4C
_symmetry_space_group_name_H-M   'P 1'
_cell_length_a   3.27195112
_cell_length_b   5.26301927
_cell_length_c   5.26301924
_cell_angle_alpha   77.34044386
_cell_angle_beta   71.88991614
_cell_angle_gamma   71.88991675
_symmetry_Int_Tables_number   1
_chemical_formula_structural   Dy2B4C
_chemical_formula_sum   'Dy2 B4 C1'
_cell_volume   81.11721848
_cell_formula_units_Z   1
loop_
 _symmetry_equiv_pos_site_id
 _symmetry_equiv_pos_as_xyz
  1  'x, y, z'
loop_
 _atom_site_type_symbol
 _atom_site_label
 _atom_site_symmetry_multiplicity
 _atom_site_fract_x
 _atom_site_fract_y
 _atom_site_fract_z
 _atom_site_occupancy
  Dy  Dy0  1  0.76646388  0.23353612  0.23353612  1
  Dy  Dy1  1  0.23353612  0.76646388  0.76646388  1
  B  B2  1  -0.00000000  0.36590546  0.63409454  1
  B  B3  1  0.50000000  0.77334164  0.22665836  1
  B  B4  1  0.00000000  0.63409454  0.36590546  1
  B  B5  1  0.50000000  0.22665836  0.77334164  1
  C  C6  1  0.50000000  -0.00000000  0.00000000  1
