# generated using pymatgen
data_KNaThF6
_symmetry_space_group_name_H-M   'P 1'
_cell_length_a   6.27193812
_cell_length_b   6.27193811
_cell_length_c   7.85930958
_cell_angle_alpha   90.00000000
_cell_angle_beta   90.00000000
_cell_angle_gamma   119.99999429
_symmetry_Int_Tables_number   1
_chemical_formula_structural   KNaThF6
_chemical_formula_sum   'K2 Na2 Th2 F12'
_cell_volume   267.74328176
_cell_formula_units_Z   2
loop_
 _symmetry_equiv_pos_site_id
 _symmetry_equiv_pos_as_xyz
  1  'x, y, z'
loop_
 _atom_site_type_symbol
 _atom_site_label
 _atom_site_symmetry_multiplicity
 _atom_site_fract_x
 _atom_site_fract_y
 _atom_site_fract_z
 _atom_site_occupancy
  K  K0  1  0.66666700  0.33333300  0.39155438  1
  K  K1  1  0.33333300  0.66666700  0.60844562  1
  Na  Na2  1  0.00000000  -0.00000000  0.23378602  1
  Na  Na3  1  0.00000000  -0.00000000  0.76621398  1
  Th  Th4  1  0.33333300  0.66666700  0.12356646  1
  Th  Th5  1  0.66666700  0.33333300  0.87643354  1
  F  F6  1  0.27588378  0.89560481  0.32518145  1
  F  F7  1  0.92227197  0.61283060  0.09884931  1
  F  F8  1  0.38716940  0.30944037  0.09884931  1
  F  F9  1  0.61283060  0.69055963  0.90115069  1
  F  F10  1  0.89560481  0.61972104  0.67481855  1
  F  F11  1  0.72411622  0.10439519  0.67481855  1
  F  F12  1  0.30944037  0.92227197  0.90115069  1
  F  F13  1  0.07772803  0.38716940  0.90115069  1
  F  F14  1  0.10439519  0.38027896  0.32518145  1
  F  F15  1  0.69055963  0.07772803  0.09884931  1
  F  F16  1  0.61972104  0.72411622  0.32518145  1
  F  F17  1  0.38027896  0.27588378  0.67481855  1
