# generated using pymatgen
data_DyAgPb
_symmetry_space_group_name_H-M   'P 1'
_cell_length_a   4.77011761
_cell_length_b   4.77011761
_cell_length_c   7.50433847
_cell_angle_alpha   90.00000000
_cell_angle_beta   90.00000000
_cell_angle_gamma   120.00002368
_symmetry_Int_Tables_number   1
_chemical_formula_structural   DyAgPb
_chemical_formula_sum   'Dy2 Ag2 Pb2'
_cell_volume   147.87716480
_cell_formula_units_Z   2
loop_
 _symmetry_equiv_pos_site_id
 _symmetry_equiv_pos_as_xyz
  1  'x, y, z'
loop_
 _atom_site_type_symbol
 _atom_site_label
 _atom_site_symmetry_multiplicity
 _atom_site_fract_x
 _atom_site_fract_y
 _atom_site_fract_z
 _atom_site_occupancy
  Dy  Dy0  1  0.00000000  -0.00000000  0.00443482  1
  Dy  Dy1  1  0.00000000  -0.00000000  0.50443482  1
  Ag  Ag2  1  0.33333300  0.66666700  0.82327617  1
  Ag  Ag3  1  0.66666700  0.33333300  0.32327617  1
  Pb  Pb4  1  0.33333300  0.66666700  0.22378900  1
  Pb  Pb5  1  0.66666700  0.33333300  0.72378900  1
