# generated using pymatgen
data_NaPO3
_symmetry_space_group_name_H-M   'P 1'
_cell_length_a   7.61998559
_cell_length_b   7.88601616
_cell_length_c   13.12362076
_cell_angle_alpha   90.00000000
_cell_angle_beta   90.00000000
_cell_angle_gamma   90.00000000
_symmetry_Int_Tables_number   1
_chemical_formula_structural   NaPO3
_chemical_formula_sum   'Na12 P12 O36'
_cell_volume   788.61581934
_cell_formula_units_Z   12
loop_
 _symmetry_equiv_pos_site_id
 _symmetry_equiv_pos_as_xyz
  1  'x, y, z'
loop_
 _atom_site_type_symbol
 _atom_site_label
 _atom_site_symmetry_multiplicity
 _atom_site_fract_x
 _atom_site_fract_y
 _atom_site_fract_z
 _atom_site_occupancy
  Na  Na0  1  0.81750982  0.00287039  0.42727836  1
  Na  Na1  1  0.03733737  0.75000000  0.22330372  1
  Na  Na2  1  0.46266263  0.25000000  0.72330372  1
  Na  Na3  1  0.31750982  0.49712961  0.07272164  1
  Na  Na4  1  0.18249018  0.50287039  0.57272164  1
  Na  Na5  1  0.68249018  0.50287039  0.92727836  1
  Na  Na6  1  0.96266263  0.25000000  0.77669628  1
  Na  Na7  1  0.31750982  0.00287039  0.07272164  1
  Na  Na8  1  0.18249018  0.99712961  0.57272164  1
  Na  Na9  1  0.68249018  0.99712961  0.92727836  1
  Na  Na10  1  0.53733737  0.75000000  0.27669628  1
  Na  Na11  1  0.81750982  0.49712961  0.42727836  1
  P  P12  1  0.75072723  0.93308280  0.67226210  1
  P  P13  1  0.01884877  0.75000000  0.96206309  1
  P  P14  1  0.51884877  0.75000000  0.53793691  1
  P  P15  1  0.25072723  0.56691720  0.82773790  1
  P  P16  1  0.48115123  0.25000000  0.46206309  1
  P  P17  1  0.24927277  0.43308280  0.32773790  1
  P  P18  1  0.24927277  0.06691720  0.32773790  1
  P  P19  1  0.74927277  0.06691720  0.17226210  1
  P  P20  1  0.75072723  0.56691720  0.67226210  1
  P  P21  1  0.74927277  0.43308280  0.17226210  1
  P  P22  1  0.98115123  0.25000000  0.03793691  1
  P  P23  1  0.25072723  0.93308280  0.82773790  1
  O  O24  1  0.13693286  0.75000000  0.05255783  1
  O  O25  1  0.36306714  0.25000000  0.55255783  1
  O  O26  1  0.56824174  0.59204022  0.61081895  1
  O  O27  1  0.56824174  0.90795978  0.61081895  1
  O  O28  1  0.78345612  0.94047742  0.25359404  1
  O  O29  1  0.06824174  0.90795978  0.88918105  1
  O  O30  1  0.78345612  0.55952258  0.25359404  1
  O  O31  1  0.63693286  0.75000000  0.44744217  1
  O  O32  1  0.43175826  0.09204022  0.38918105  1
  O  O33  1  0.71654388  0.05952258  0.75359404  1
  O  O34  1  0.93175826  0.40795978  0.11081895  1
  O  O35  1  0.82646343  0.75000000  0.97486617  1
  O  O36  1  0.60533808  0.03819847  0.09885210  1
  O  O37  1  0.73051012  0.25000000  0.22596842  1
  O  O38  1  0.43175826  0.40795978  0.38918105  1
  O  O39  1  0.17353657  0.25000000  0.02513383  1
  O  O40  1  0.21654388  0.44047742  0.74640596  1
  O  O41  1  0.67353657  0.25000000  0.47486617  1
  O  O42  1  0.28345612  0.55952258  0.24640596  1
  O  O43  1  0.86306714  0.25000000  0.94744217  1
  O  O44  1  0.71654388  0.44047742  0.75359404  1
  O  O45  1  0.10533808  0.03819847  0.40114790  1
  O  O46  1  0.76948988  0.75000000  0.72596842  1
  O  O47  1  0.89466192  0.96180153  0.59885210  1
  O  O48  1  0.21654388  0.05952258  0.74640596  1
  O  O49  1  0.28345612  0.94047742  0.24640596  1
  O  O50  1  0.93175826  0.09204022  0.11081895  1
  O  O51  1  0.26948988  0.75000000  0.77403158  1
  O  O52  1  0.60533808  0.46180153  0.09885210  1
  O  O53  1  0.32646343  0.75000000  0.52513383  1
  O  O54  1  0.89466192  0.53819847  0.59885210  1
  O  O55  1  0.10533808  0.46180153  0.40114790  1
  O  O56  1  0.06824174  0.59204022  0.88918105  1
  O  O57  1  0.39466192  0.96180153  0.90114790  1
  O  O58  1  0.23051012  0.25000000  0.27403158  1
  O  O59  1  0.39466192  0.53819847  0.90114790  1
