# generated using pymatgen
data_PrZr2F11
_symmetry_space_group_name_H-M   'P 1'
_cell_length_a   8.41633638
_cell_length_b   8.41628777
_cell_length_c   8.41631041
_cell_angle_alpha   124.81882357
_cell_angle_beta   106.31149346
_cell_angle_gamma   98.52047411
_symmetry_Int_Tables_number   1
_chemical_formula_structural   PrZr2F11
_chemical_formula_sum   'Pr2 Zr4 F22'
_cell_volume   432.21789717
_cell_formula_units_Z   2
loop_
 _symmetry_equiv_pos_site_id
 _symmetry_equiv_pos_as_xyz
  1  'x, y, z'
loop_
 _atom_site_type_symbol
 _atom_site_label
 _atom_site_symmetry_multiplicity
 _atom_site_fract_x
 _atom_site_fract_y
 _atom_site_fract_z
 _atom_site_occupancy
  Pr  Pr0  1  0.25000495  0.25000474  0.00001236  1
  Pr  Pr1  1  0.74999521  0.74999554  -0.00001229  1
  Zr  Zr2  1  0.81938574  0.63272258  0.45210118  1
  Zr  Zr3  1  0.18061463  0.36727733  0.54789833  1
  Zr  Zr4  1  0.31938177  0.86728179  0.18666348  1
  Zr  Zr5  1  0.68061802  0.13271808  0.81333579  1
  F  F6  1  0.32155979  0.03387763  0.08239360  1
  F  F7  1  0.71936088  0.86990164  0.58926504  1
  F  F8  1  0.95148072  0.23916824  0.91759591  1
  F  F9  1  0.94727254  0.10634596  0.31227622  1
  F  F10  1  0.21936302  0.63009843  0.84946012  1
  F  F11  1  0.79407341  0.63499542  0.68772133  1
  F  F12  1  0.54851773  0.46612362  0.28768304  1
  F  F13  1  0.44726837  0.13499137  0.84090453  1
  F  F14  1  0.78063731  0.36990193  0.15054021  1
  F  F15  1  0.29407022  0.60634725  0.15907480  1
  F  F16  1  0.45148231  0.53387658  0.71231700  1
  F  F17  1  0.70592741  0.39365128  0.84092384  1
  F  F18  1  0.55273195  0.86500877  0.15909559  1
  F  F19  1  0.04851936  0.76083237  0.08240412  1
  F  F20  1  0.00000008  0.50000011  0.50000002  1
  F  F21  1  0.82155740  0.73916491  0.28767979  1
  F  F22  1  0.20592664  0.36500446  0.31227864  1
  F  F23  1  0.67844042  0.96612270  0.91760658  1
  F  F24  1  0.17844281  0.26083541  0.71232042  1
  F  F25  1  0.28063948  0.13009845  0.41073523  1
  F  F26  1  0.05272768  0.89365432  0.68772409  1
  F  F27  1  0.50000013  0.00000012  0.50000003  1
