# generated using pymatgen
data_GdVO3
_symmetry_space_group_name_H-M   'P 1'
_cell_length_a   5.34021045
_cell_length_b   5.67985439
_cell_length_c   7.57246796
_cell_angle_alpha   90.13197242
_cell_angle_beta   89.91655894
_cell_angle_gamma   90.03460105
_symmetry_Int_Tables_number   1
_chemical_formula_structural   GdVO3
_chemical_formula_sum   'Gd4 V4 O12'
_cell_volume   229.68430934
_cell_formula_units_Z   4
loop_
 _symmetry_equiv_pos_site_id
 _symmetry_equiv_pos_as_xyz
  1  'x, y, z'
loop_
 _atom_site_type_symbol
 _atom_site_label
 _atom_site_symmetry_multiplicity
 _atom_site_fract_x
 _atom_site_fract_y
 _atom_site_fract_z
 _atom_site_occupancy
  Gd  Gd0  1  0.98113352  0.93328025  0.25020561  1
  Gd  Gd1  1  0.48164752  0.56683978  0.74985943  1
  Gd  Gd2  1  0.51872546  0.43292596  0.25067651  1
  Gd  Gd3  1  0.01858626  0.06633095  0.74948787  1
  V  V4  1  0.49963813  0.00026487  0.00023478  1
  V  V5  1  -0.00043274  0.49971747  0.00021051  1
  V  V6  1  0.00019925  0.50002651  0.49976478  1
  V  V7  1  0.50016408  0.00043170  0.49977685  1
  O  O8  1  0.10057951  0.53244447  0.25035558  1
  O  O9  1  0.60115637  0.96751068  0.74946088  1
  O  O10  1  0.39879523  0.03225298  0.25065607  1
  O  O11  1  0.89910400  0.46752104  0.74938189  1
  O  O12  1  0.69616528  0.69218707  0.05121713  1
  O  O13  1  0.19645890  0.80781726  0.94870524  1
  O  O14  1  0.81258430  0.20211113  0.44695004  1
  O  O15  1  0.31203041  0.29762227  0.55372507  1
  O  O16  1  0.30327855  0.30800458  0.94886296  1
  O  O17  1  0.80325586  0.19193893  0.05129031  1
  O  O18  1  0.18827605  0.79777353  0.55301714  1
  O  O19  1  0.68865405  0.70299857  0.44616138  1
