# generated using pymatgen
data_Pr4C2Cl5
_symmetry_space_group_name_H-M   'P 1'
_cell_length_a   3.89597207
_cell_length_b   7.88407380
_cell_length_c   9.73172281
_cell_angle_alpha   113.87620016
_cell_angle_beta   101.54194301
_cell_angle_gamma   90.00604585
_symmetry_Int_Tables_number   1
_chemical_formula_structural   Pr4C2Cl5
_chemical_formula_sum   'Pr4 C2 Cl5'
_cell_volume   266.71326315
_cell_formula_units_Z   1
loop_
 _symmetry_equiv_pos_site_id
 _symmetry_equiv_pos_as_xyz
  1  'x, y, z'
loop_
 _atom_site_type_symbol
 _atom_site_label
 _atom_site_symmetry_multiplicity
 _atom_site_fract_x
 _atom_site_fract_y
 _atom_site_fract_z
 _atom_site_occupancy
  Pr  Pr0  1  0.32809116  0.32803744  0.65597944  1
  Pr  Pr1  1  0.67190884  0.67196256  0.34402056  1
  Pr  Pr2  1  0.99996741  0.71307083  0.99998252  1
  Pr  Pr3  1  0.00003259  0.28692917  0.00001748  1
  C  C4  1  0.45934494  0.45930027  0.91861706  1
  C  C5  1  0.54065506  0.54069973  0.08138294  1
  Cl  Cl6  1  0.16751436  0.39361198  0.33541276  1
  Cl  Cl7  1  0.83235465  0.05835188  0.66460717  1
  Cl  Cl8  1  0.83248564  0.60638802  0.66458724  1
  Cl  Cl9  1  0.16764535  0.94164812  0.33539283  1
  Cl  Cl10  1  0.50000000  0.00000000  0.00000000  1
