# generated using pymatgen
data_Bi3Pt3O11
_symmetry_space_group_name_H-M   'P 1'
_cell_length_a   9.40669483
_cell_length_b   9.40674912
_cell_length_c   9.40674177
_cell_angle_alpha   89.99984395
_cell_angle_beta   90.00009995
_cell_angle_gamma   89.99983213
_symmetry_Int_Tables_number   1
_chemical_formula_structural   Bi3Pt3O11
_chemical_formula_sum   'Bi12 Pt12 O44'
_cell_volume   832.36888723
_cell_formula_units_Z   4
loop_
 _symmetry_equiv_pos_site_id
 _symmetry_equiv_pos_as_xyz
  1  'x, y, z'
loop_
 _atom_site_type_symbol
 _atom_site_label
 _atom_site_symmetry_multiplicity
 _atom_site_fract_x
 _atom_site_fract_y
 _atom_site_fract_z
 _atom_site_occupancy
  Bi  Bi0  1  0.86728417  0.13271431  0.86728271  1
  Bi  Bi1  1  0.13271114  0.13271583  0.13271860  1
  Bi  Bi2  1  0.36728935  0.63271799  0.63271930  1
  Bi  Bi3  1  0.63271583  0.36728569  0.63271729  1
  Bi  Bi4  1  0.86728068  0.86728006  0.13272052  1
  Bi  Bi5  1  0.13271065  0.86728201  0.86728070  1
  Bi  Bi6  1  0.25000000  0.75000000  0.25000000  1
  Bi  Bi7  1  0.63271932  0.63271994  0.36727948  1
  Bi  Bi8  1  0.75000000  0.75000000  0.75000000  1
  Bi  Bi9  1  0.25000000  0.25000000  0.75000000  1
  Bi  Bi10  1  0.75000000  0.25000000  0.25000000  1
  Bi  Bi11  1  0.36728886  0.36728417  0.36728140  1
  Pt  Pt12  1  0.49999991  0.15795877  -0.00000140  1
  Pt  Pt13  1  0.00000248  0.49999994  0.84205293  1
  Pt  Pt14  1  0.49999752  0.00000006  0.65794707  1
  Pt  Pt15  1  0.50000694  0.00000096  0.34205597  1
  Pt  Pt16  1  0.15794706  0.00000639  0.50000488  1
  Pt  Pt17  1  0.65795033  0.50000180  0.00000268  1
  Pt  Pt18  1  0.99999306  0.49999904  0.15794403  1
  Pt  Pt19  1  0.84204967  -0.00000180  0.49999732  1
  Pt  Pt20  1  0.00000009  0.34204123  0.50000140  1
  Pt  Pt21  1  0.34205294  0.49999361  -0.00000488  1
  Pt  Pt22  1  0.99999364  0.65795606  0.50000282  1
  Pt  Pt23  1  0.50000636  0.84204394  -0.00000282  1
  O  O24  1  0.89724645  0.10275485  0.10275506  1
  O  O25  1  0.50000664  0.85455833  0.50000217  1
  O  O26  1  0.83140363  0.21152267  0.49440193  1
  O  O27  1  0.60275325  0.60275572  0.60275567  1
  O  O28  1  0.33141035  0.71152266  0.00559173  1
  O  O29  1  0.99999794  0.00000005  0.64544138  1
  O  O30  1  0.89724675  0.89724428  0.89724433  1
  O  O31  1  0.83140216  0.78847659  0.50559520  1
  O  O32  1  0.71153578  0.00559431  0.33141316  1
  O  O33  1  0.39724819  0.39724419  0.60275713  1
  O  O34  1  0.16858965  0.78847734  0.49440827  1
  O  O35  1  0.16859266  0.21152561  0.50559912  1
  O  O36  1  0.60275355  0.39724515  0.39724494  1
  O  O37  1  0.50559986  0.16859681  0.21153946  1
  O  O38  1  0.66859784  0.71152341  0.99440480  1
  O  O39  1  0.28846924  0.99440819  0.33141803  1
  O  O40  1  0.49440267  0.16859661  0.78845878  1
  O  O41  1  0.39725195  0.60275311  0.39724805  1
  O  O42  1  0.85454873  0.50000084  0.49999869  1
  O  O43  1  0.21153076  0.50559181  0.16858197  1
  O  O44  1  0.71153249  0.99440180  0.66858482  1
  O  O45  1  0.00558596  0.66859598  0.28845977  1
  O  O46  1  0.99440014  0.33140319  0.28846054  1
  O  O47  1  0.28846754  0.00559911  0.66858545  1
  O  O48  1  0.78846422  0.49440569  0.16858684  1
  O  O49  1  0.33140734  0.28847439  0.99440088  1
  O  O50  1  0.50559783  0.83140387  0.78845831  1
  O  O51  1  0.78846751  0.50559820  0.83141518  1
  O  O52  1  0.35455622  0.00000127  -0.00000311  1
  O  O53  1  0.50000189  0.14544394  0.50000050  1
  O  O54  1  0.10274805  0.89724689  0.10275195  1
  O  O55  1  0.99999336  0.64544167  -0.00000217  1
  O  O56  1  0.49441404  0.83140402  0.21154023  1
  O  O57  1  0.21153246  0.49440089  0.83141455  1
  O  O58  1  0.10275181  0.10275581  0.89724287  1
  O  O59  1  0.66859637  0.28847733  0.00559807  1
  O  O60  1  0.50000206  0.49999995  0.85455862  1
  O  O61  1  0.99999652  0.00000091  0.35456086  1
  O  O62  1  0.99440217  0.66859613  0.71154169  1
  O  O63  1  0.14544378  0.49999873  0.50000311  1
  O  O64  1  0.64545127  -0.00000084  0.00000131  1
  O  O65  1  0.00559733  0.33140339  0.71154122  1
  O  O66  1  0.50000348  0.49999909  0.14543914  1
  O  O67  1  0.99999811  0.35455606  -0.00000050  1
