# generated using pymatgen
data_SiO2
_symmetry_space_group_name_H-M   'P 1'
_cell_length_a   5.23534552
_cell_length_b   11.32218208
_cell_length_c   11.32218095
_cell_angle_alpha   103.51227350
_cell_angle_beta   90.00000000
_cell_angle_gamma   90.00000000
_symmetry_Int_Tables_number   1
_chemical_formula_structural   SiO2
_chemical_formula_sum   'Si12 O24'
_cell_volume   652.55143009
_cell_formula_units_Z   12
loop_
 _symmetry_equiv_pos_site_id
 _symmetry_equiv_pos_as_xyz
  1  'x, y, z'
loop_
 _atom_site_type_symbol
 _atom_site_label
 _atom_site_symmetry_multiplicity
 _atom_site_fract_x
 _atom_site_fract_y
 _atom_site_fract_z
 _atom_site_occupancy
  Si  Si0  1  0.75000000  0.75308568  0.65678536  1
  Si  Si1  1  0.25000000  0.65678536  0.75308568  1
  Si  Si2  1  0.75000000  0.41712407  0.99524669  1
  Si  Si3  1  0.75000000  0.27386770  0.72613230  1
  Si  Si4  1  0.75000000  0.62131254  0.37868746  1
  Si  Si5  1  0.25000000  0.72613230  0.27386770  1
  Si  Si6  1  0.25000000  0.58287593  0.00475331  1
  Si  Si7  1  0.25000000  0.37868746  0.62131254  1
  Si  Si8  1  0.25000000  0.24691432  0.34321464  1
  Si  Si9  1  0.25000000  0.99524669  0.41712407  1
  Si  Si10  1  0.75000000  0.00475331  0.58287593  1
  Si  Si11  1  0.75000000  0.34321464  0.24691432  1
  O  O12  1  0.00000000  0.26952153  0.26952153  1
  O  O13  1  0.49967144  0.67353079  0.32646921  1
  O  O14  1  -0.00000000  0.73047847  0.73047847  1
  O  O15  1  0.25000000  0.52451770  0.66094351  1
  O  O16  1  0.75000000  0.35427727  0.10817469  1
  O  O17  1  0.25000000  0.64572273  0.89182531  1
  O  O18  1  0.25000000  0.68744101  0.12812594  1
  O  O19  1  0.25000000  0.33905649  0.47548230  1
  O  O20  1  0.75000000  0.89182531  0.64572273  1
  O  O21  1  0.00032856  0.67353079  0.32646921  1
  O  O22  1  0.50032856  0.32646921  0.67353079  1
  O  O23  1  0.50000000  -0.00000000  0.50000000  1
  O  O24  1  0.50000000  0.73047847  0.73047847  1
  O  O25  1  0.75000000  0.66094351  0.52451770  1
  O  O26  1  0.25000000  0.10817469  0.35427727  1
  O  O27  1  -0.00000000  -0.00000000  0.50000000  1
  O  O28  1  0.75000000  0.47548230  0.33905649  1
  O  O29  1  0.75000000  0.31255899  0.87187406  1
  O  O30  1  0.50000000  0.26952153  0.26952153  1
  O  O31  1  0.00000000  0.50000000  0.00000000  1
  O  O32  1  0.99967144  0.32646921  0.67353079  1
  O  O33  1  0.75000000  0.12812594  0.68744101  1
  O  O34  1  0.25000000  0.87187406  0.31255899  1
  O  O35  1  0.50000000  0.50000000  0.00000000  1
