# generated using pymatgen
data_Pr7CoI12
_symmetry_space_group_name_H-M   'P 1'
_cell_length_a   9.98953932
_cell_length_b   9.98953868
_cell_length_c   9.98953950
_cell_angle_alpha   107.58979338
_cell_angle_beta   107.58979547
_cell_angle_gamma   107.58979513
_symmetry_Int_Tables_number   1
_chemical_formula_structural   Pr7CoI12
_chemical_formula_sum   'Pr7 Co1 I12'
_cell_volume   816.47353685
_cell_formula_units_Z   1
loop_
 _symmetry_equiv_pos_site_id
 _symmetry_equiv_pos_as_xyz
  1  'x, y, z'
loop_
 _atom_site_type_symbol
 _atom_site_label
 _atom_site_symmetry_multiplicity
 _atom_site_fract_x
 _atom_site_fract_y
 _atom_site_fract_z
 _atom_site_occupancy
  Pr  Pr0  1  0.96829961  0.89744139  0.69550673  1
  Pr  Pr1  1  0.03170039  0.10255861  0.30449327  1
  Pr  Pr2  1  0.10255861  0.30449327  0.03170039  1
  Pr  Pr3  1  0.30449327  0.03170039  0.10255861  1
  Pr  Pr4  1  0.50000000  0.50000000  0.50000000  1
  Pr  Pr5  1  0.89744139  0.69550673  0.96829961  1
  Pr  Pr6  1  0.69550673  0.96829961  0.89744139  1
  Co  Co7  1  -0.00000000  -0.00000000  -0.00000000  1
  I  I8  1  0.52564416  0.60853723  0.84671563  1
  I  I9  1  0.47435584  0.39146277  0.15328437  1
  I  I10  1  0.31727864  0.92515335  0.77177749  1
  I  I11  1  0.39146277  0.15328437  0.47435584  1
  I  I12  1  0.92515335  0.77177749  0.31727864  1
  I  I13  1  0.68272136  0.07484665  0.22822251  1
  I  I14  1  0.07484665  0.22822251  0.68272136  1
  I  I15  1  0.77177749  0.31727864  0.92515335  1
  I  I16  1  0.22822251  0.68272136  0.07484665  1
  I  I17  1  0.84671563  0.52564416  0.60853723  1
  I  I18  1  0.15328437  0.47435584  0.39146277  1
  I  I19  1  0.60853723  0.84671563  0.52564416  1
