# generated using pymatgen
data_PNF2
_symmetry_space_group_name_H-M   'P 1'
_cell_length_a   13.63246072
_cell_length_b   4.85929884
_cell_length_c   7.16906530
_cell_angle_alpha   71.50759746
_cell_angle_beta   90.00000000
_cell_angle_gamma   90.00000000
_symmetry_Int_Tables_number   1
_chemical_formula_structural   PNF2
_chemical_formula_sum   'P8 N8 F16'
_cell_volume   450.38741584
_cell_formula_units_Z   8
loop_
 _symmetry_equiv_pos_site_id
 _symmetry_equiv_pos_as_xyz
  1  'x, y, z'
loop_
 _atom_site_type_symbol
 _atom_site_label
 _atom_site_symmetry_multiplicity
 _atom_site_fract_x
 _atom_site_fract_y
 _atom_site_fract_z
 _atom_site_occupancy
  P  P0  1  0.61782416  0.92123974  0.69552212  1
  P  P1  1  0.92505877  0.34249252  0.80234250  1
  P  P2  1  0.38217584  0.07876026  0.30447788  1
  P  P3  1  0.88217584  0.92123974  0.19552212  1
  P  P4  1  0.42505877  0.65750748  0.69765750  1
  P  P5  1  0.07494123  0.65750748  0.19765750  1
  P  P6  1  0.57494123  0.34249252  0.30234250  1
  P  P7  1  0.11782416  0.07876026  0.80447788  1
  N  N8  1  0.38092222  0.81796864  0.49480395  1
  N  N9  1  0.88092222  0.18203136  0.00519605  1
  N  N10  1  0.97174476  0.71943921  0.26298097  1
  N  N11  1  0.11907778  0.81796864  0.99480395  1
  N  N12  1  0.61907778  0.18203136  0.50519605  1
  N  N13  1  0.02825524  0.28056079  0.73701903  1
  N  N14  1  0.52825524  0.71943921  0.76298097  1
  N  N15  1  0.47174476  0.28056079  0.23701903  1
  F  F16  1  0.42057232  0.32882093  0.72303722  1
  F  F17  1  0.07942768  0.32882093  0.22303722  1
  F  F18  1  0.29202615  0.27068022  0.30365689  1
  F  F19  1  0.79202615  0.72931978  0.19634311  1
  F  F20  1  0.14897128  0.66620342  0.35770083  1
  F  F21  1  0.20797385  0.27068022  0.80365689  1
  F  F22  1  0.57942768  0.67117907  0.27696278  1
  F  F23  1  0.64668771  0.03315026  0.86602947  1
  F  F24  1  0.35331229  0.96684974  0.13397053  1
  F  F25  1  0.64897128  0.33379658  0.14229917  1
  F  F26  1  0.70797385  0.72931978  0.69634311  1
  F  F27  1  0.85331229  0.03315026  0.36602947  1
  F  F28  1  0.14668771  0.96684974  0.63397053  1
  F  F29  1  0.35102872  0.66620342  0.85770083  1
  F  F30  1  0.85102872  0.33379658  0.64229917  1
  F  F31  1  0.92057232  0.67117907  0.77696278  1
