# generated using pymatgen
data_Mo3Pt2N
_symmetry_space_group_name_H-M   'P 1'
_cell_length_a   6.85834023
_cell_length_b   6.85834023
_cell_length_c   6.85834023
_cell_angle_alpha   90.00000000
_cell_angle_beta   90.00000000
_cell_angle_gamma   90.00000000
_symmetry_Int_Tables_number   1
_chemical_formula_structural   Mo3Pt2N
_chemical_formula_sum   'Mo12 Pt8 N4'
_cell_volume   322.59458835
_cell_formula_units_Z   4
loop_
 _symmetry_equiv_pos_site_id
 _symmetry_equiv_pos_as_xyz
  1  'x, y, z'
loop_
 _atom_site_type_symbol
 _atom_site_label
 _atom_site_symmetry_multiplicity
 _atom_site_fract_x
 _atom_site_fract_y
 _atom_site_fract_z
 _atom_site_occupancy
  Mo  Mo0  1  0.62500000  0.70037906  0.95037906  1
  Mo  Mo1  1  0.45037906  0.87500000  0.29962094  1
  Mo  Mo2  1  0.70037906  0.95037906  0.62500000  1
  Mo  Mo3  1  0.54962094  0.37500000  0.20037906  1
  Mo  Mo4  1  0.37500000  0.20037906  0.54962094  1
  Mo  Mo5  1  0.20037906  0.54962094  0.37500000  1
  Mo  Mo6  1  0.87500000  0.29962094  0.45037906  1
  Mo  Mo7  1  0.04962094  0.12500000  0.79962094  1
  Mo  Mo8  1  0.29962094  0.45037906  0.87500000  1
  Mo  Mo9  1  0.12500000  0.79962094  0.04962094  1
  Mo  Mo10  1  0.79962094  0.04962094  0.12500000  1
  Mo  Mo11  1  0.95037906  0.62500000  0.70037906  1
  Pt  Pt12  1  0.19298436  0.19298436  0.19298436  1
  Pt  Pt13  1  0.30701564  0.80701564  0.69298436  1
  Pt  Pt14  1  0.44298436  0.05701564  0.94298436  1
  Pt  Pt15  1  0.80701564  0.69298436  0.30701564  1
  Pt  Pt16  1  0.69298436  0.30701564  0.80701564  1
  Pt  Pt17  1  0.55701564  0.55701564  0.55701564  1
  Pt  Pt18  1  0.05701564  0.94298436  0.44298436  1
  Pt  Pt19  1  0.94298436  0.44298436  0.05701564  1
  N  N20  1  0.37500000  0.62500000  0.12500000  1
  N  N21  1  0.87500000  0.87500000  0.87500000  1
  N  N22  1  0.12500000  0.37500000  0.62500000  1
  N  N23  1  0.62500000  0.12500000  0.37500000  1
