# generated using pymatgen
data_CuSeO3
_symmetry_space_group_name_H-M   'P 1'
_cell_length_a   8.27492805
_cell_length_b   7.70471690
_cell_length_c   10.61491645
_cell_angle_alpha   52.53399415
_cell_angle_beta   90.00000000
_cell_angle_gamma   90.00000000
_symmetry_Int_Tables_number   1
_chemical_formula_structural   CuSeO3
_chemical_formula_sum   'Cu8 Se8 O24'
_cell_volume   537.15762296
_cell_formula_units_Z   8
loop_
 _symmetry_equiv_pos_site_id
 _symmetry_equiv_pos_as_xyz
  1  'x, y, z'
loop_
 _atom_site_type_symbol
 _atom_site_label
 _atom_site_symmetry_multiplicity
 _atom_site_fract_x
 _atom_site_fract_y
 _atom_site_fract_z
 _atom_site_occupancy
  Cu  Cu0  1  0.79648058  0.55696119  0.97111034  1
  Cu  Cu1  1  0.40136556  0.20186201  0.38477879  1
  Cu  Cu2  1  0.59863444  0.79813799  0.61522121  1
  Cu  Cu3  1  0.90136556  0.79813799  0.11522121  1
  Cu  Cu4  1  0.20351942  0.44303881  0.02888966  1
  Cu  Cu5  1  0.09863444  0.20186201  0.88477879  1
  Cu  Cu6  1  0.29648058  0.44303881  0.52888966  1
  Cu  Cu7  1  0.70351942  0.55696119  0.47111034  1
  Se  Se8  1  0.36366563  0.90346249  0.79292720  1
  Se  Se9  1  0.53167958  0.64896161  0.16962514  1
  Se  Se10  1  0.13633437  0.90346249  0.29292720  1
  Se  Se11  1  0.46832042  0.35103839  0.83037486  1
  Se  Se12  1  0.63633437  0.09653751  0.20707280  1
  Se  Se13  1  0.03167958  0.35103839  0.33037486  1
  Se  Se14  1  0.96832042  0.64896161  0.66962514  1
  Se  Se15  1  0.86366563  0.09653751  0.70707280  1
  O  O16  1  0.19660369  0.74924297  0.83936323  1
  O  O17  1  0.43744686  0.46188331  0.15814579  1
  O  O18  1  0.56762856  0.47061212  0.36946655  1
  O  O19  1  0.28008628  0.33534319  0.91253178  1
  O  O20  1  0.30339631  0.74924297  0.33936323  1
  O  O21  1  0.69660369  0.25075703  0.66063677  1
  O  O22  1  0.71991372  0.66465681  0.08746822  1
  O  O23  1  0.06762856  0.52938788  0.13053345  1
  O  O24  1  0.06255314  0.46188331  0.65814579  1
  O  O25  1  0.27986279  0.14648823  0.73240458  1
  O  O26  1  0.80339631  0.25075703  0.16063677  1
  O  O27  1  0.91753145  0.04035082  0.88712276  1
  O  O28  1  0.93237144  0.47061212  0.86946655  1
  O  O29  1  0.72013721  0.85351177  0.26759542  1
  O  O30  1  0.43237144  0.52938788  0.63053345  1
  O  O31  1  0.56255314  0.53811669  0.84185421  1
  O  O32  1  0.22013721  0.14648823  0.23240458  1
  O  O33  1  0.93744686  0.53811669  0.34185421  1
  O  O34  1  0.78008628  0.66465681  0.58746822  1
  O  O35  1  0.58246855  0.04035082  0.38712276  1
  O  O36  1  0.77986279  0.85351177  0.76759542  1
  O  O37  1  0.41753145  0.95964918  0.61287724  1
  O  O38  1  0.21991372  0.33534319  0.41253178  1
  O  O39  1  0.08246855  0.95964918  0.11287724  1
