# generated using pymatgen
data_H2CO
_symmetry_space_group_name_H-M   'P 1'
_cell_length_a   7.43650441
_cell_length_b   8.09331409
_cell_length_c   10.48116982
_cell_angle_alpha   90.00000000
_cell_angle_beta   90.00000000
_cell_angle_gamma   90.00000000
_symmetry_Int_Tables_number   1
_chemical_formula_structural   H2CO
_chemical_formula_sum   'H40 C20 O20'
_cell_volume   630.81932961
_cell_formula_units_Z   20
loop_
 _symmetry_equiv_pos_site_id
 _symmetry_equiv_pos_as_xyz
  1  'x, y, z'
loop_
 _atom_site_type_symbol
 _atom_site_label
 _atom_site_symmetry_multiplicity
 _atom_site_fract_x
 _atom_site_fract_y
 _atom_site_fract_z
 _atom_site_occupancy
  H  H0  1  0.05654695  0.48584106  0.23779135  1
  H  H1  1  0.44345305  0.51415894  0.23779135  1
  H  H2  1  0.44377768  0.80132561  0.89371278  1
  H  H3  1  0.05622232  0.19867439  0.89371278  1
  H  H4  1  0.72223194  0.14019978  0.60893021  1
  H  H5  1  0.22223194  0.35980022  0.89106979  1
  H  H6  1  0.03201208  0.35719727  0.09780504  1
  H  H7  1  0.94345305  0.51415894  0.76220865  1
  H  H8  1  0.55622232  0.30132561  0.60628722  1
  H  H9  1  0.96798792  0.85719727  0.40219496  1
  H  H10  1  0.13921338  0.45586174  0.56061248  1
  H  H11  1  0.27776806  0.85980022  0.39106979  1
  H  H12  1  0.27776806  0.64019978  0.89106979  1
  H  H13  1  0.96798792  0.64280273  0.90219496  1
  H  H14  1  0.94377768  0.69867439  0.60628722  1
  H  H15  1  0.55622232  0.19867439  0.10628722  1
  H  H16  1  0.46798792  0.64280273  0.09780504  1
  H  H17  1  0.36078662  0.95586174  0.06061248  1
  H  H18  1  0.55654695  0.01415894  0.26220865  1
  H  H19  1  0.44377768  0.69867439  0.39371278  1
  H  H20  1  0.22223194  0.14019978  0.39106979  1
  H  H21  1  0.46798792  0.85719727  0.59780504  1
  H  H22  1  0.44345305  0.98584106  0.73779135  1
  H  H23  1  0.94345305  0.98584106  0.26220865  1
  H  H24  1  0.53201208  0.35719727  0.90219496  1
  H  H25  1  0.13921338  0.04413826  0.06061248  1
  H  H26  1  0.77776806  0.85980022  0.60893021  1
  H  H27  1  0.53201208  0.14280273  0.40219496  1
  H  H28  1  0.05622232  0.30132561  0.39371278  1
  H  H29  1  0.94377768  0.80132561  0.10628722  1
  H  H30  1  0.55654695  0.48584106  0.76220865  1
  H  H31  1  0.72223194  0.35980022  0.10893021  1
  H  H32  1  0.86078662  0.95586174  0.93938752  1
  H  H33  1  0.63921338  0.45586174  0.43938752  1
  H  H34  1  0.86078662  0.54413826  0.43938752  1
  H  H35  1  0.77776806  0.64019978  0.10893021  1
  H  H36  1  0.03201208  0.14280273  0.59780504  1
  H  H37  1  0.36078662  0.54413826  0.56061248  1
  H  H38  1  0.05654695  0.01415894  0.73779135  1
  H  H39  1  0.63921338  0.04413826  0.93938752  1
  C  C40  1  0.25000000  -0.00000000  0.00149901  1
  C  C41  1  0.19259183  0.26735345  0.36414611  1
  C  C42  1  0.87458010  0.90751291  0.33213538  1
  C  C43  1  0.75000000  -0.00000000  -0.00149901  1
  C  C44  1  0.30740817  0.76735345  0.86414611  1
  C  C45  1  0.30740817  0.73264655  0.36414611  1
  C  C46  1  0.19259183  0.23264655  0.86414611  1
  C  C47  1  0.62541990  0.40751291  0.83213538  1
  C  C48  1  0.69259183  0.23264655  0.13585389  1
  C  C49  1  0.80740817  0.73264655  0.63585389  1
  C  C50  1  0.12541990  0.40751291  0.16786462  1
  C  C51  1  0.12541990  0.09248709  0.66786462  1
  C  C52  1  0.69259183  0.26735345  0.63585389  1
  C  C53  1  0.37458010  0.90751291  0.66786462  1
  C  C54  1  0.25000000  0.50000000  0.50149901  1
  C  C55  1  0.37458010  0.59248709  0.16786462  1
  C  C56  1  0.75000000  0.50000000  0.49850099  1
  C  C57  1  0.62541990  0.09248709  0.33213538  1
  C  C58  1  0.87458010  0.59248709  0.83213538  1
  C  C59  1  0.80740817  0.76735345  0.13585389  1
  O  O60  1  0.25000000  0.50000000  0.09613031  1
  O  O61  1  0.67884270  0.63007306  0.57333151  1
  O  O62  1  0.82115730  0.13007306  0.07333151  1
  O  O63  1  0.78857894  0.77350504  0.26920667  1
  O  O64  1  0.32115730  0.13007306  0.92666849  1
  O  O65  1  0.78857894  0.72649496  0.76920667  1
  O  O66  1  0.25000000  -0.00000000  0.59613031  1
  O  O67  1  0.75000000  -0.00000000  0.40386969  1
  O  O68  1  0.32115730  0.36992694  0.42666849  1
  O  O69  1  0.17884270  0.63007306  0.42666849  1
  O  O70  1  0.75000000  0.50000000  0.90386969  1
  O  O71  1  0.17884270  0.86992694  0.92666849  1
  O  O72  1  0.28857894  0.72649496  0.23079333  1
  O  O73  1  0.71142106  0.27350504  0.76920667  1
  O  O74  1  0.28857894  0.77350504  0.73079333  1
  O  O75  1  0.21142106  0.27350504  0.23079333  1
  O  O76  1  0.82115730  0.36992694  0.57333151  1
  O  O77  1  0.67884270  0.86992694  0.07333151  1
  O  O78  1  0.71142106  0.22649496  0.26920667  1
  O  O79  1  0.21142106  0.22649496  0.73079333  1
