# generated using pymatgen
data_Sm(SiAg)2
_symmetry_space_group_name_H-M   'P 1'
_cell_length_a   4.18989102
_cell_length_b   4.18989038
_cell_length_c   6.11404061
_cell_angle_alpha   110.03808947
_cell_angle_beta   110.03810417
_cell_angle_gamma   89.99999415
_symmetry_Int_Tables_number   1
_chemical_formula_structural   Sm(SiAg)2
_chemical_formula_sum   'Sm1 Si2 Ag2'
_cell_volume   93.88972421
_cell_formula_units_Z   1
loop_
 _symmetry_equiv_pos_site_id
 _symmetry_equiv_pos_as_xyz
  1  'x, y, z'
loop_
 _atom_site_type_symbol
 _atom_site_label
 _atom_site_symmetry_multiplicity
 _atom_site_fract_x
 _atom_site_fract_y
 _atom_site_fract_z
 _atom_site_occupancy
  Sm  Sm0  1  -0.00000000  -0.00000000  -0.00000000  1
  Si  Si1  1  0.60755431  0.60755431  0.21510962  1
  Si  Si2  1  0.39244569  0.39244569  0.78489038  1
  Ag  Ag3  1  0.25000000  0.75000000  0.50000000  1
  Ag  Ag4  1  0.75000000  0.25000000  0.50000000  1
