# generated using pymatgen
data_Zr5Sb3
_symmetry_space_group_name_H-M   'P 1'
_cell_length_a   7.60922035
_cell_length_b   8.84997951
_cell_length_c   10.84513782
_cell_angle_alpha   90.00000000
_cell_angle_beta   90.00000000
_cell_angle_gamma   90.00000000
_symmetry_Int_Tables_number   1
_chemical_formula_structural   Zr5Sb3
_chemical_formula_sum   'Zr20 Sb12'
_cell_volume   730.32724318
_cell_formula_units_Z   4
loop_
 _symmetry_equiv_pos_site_id
 _symmetry_equiv_pos_as_xyz
  1  'x, y, z'
loop_
 _atom_site_type_symbol
 _atom_site_label
 _atom_site_symmetry_multiplicity
 _atom_site_fract_x
 _atom_site_fract_y
 _atom_site_fract_z
 _atom_site_occupancy
  Zr  Zr0  1  0.47233775  0.75000000  0.49666726  1
  Zr  Zr1  1  0.97233775  0.25000000  0.00333274  1
  Zr  Zr2  1  0.52766225  0.25000000  0.50333274  1
  Zr  Zr3  1  0.02766225  0.75000000  0.99666726  1
  Zr  Zr4  1  0.31853713  0.75000000  0.76679102  1
  Zr  Zr5  1  0.81853713  0.25000000  0.73320898  1
  Zr  Zr6  1  0.68146287  0.25000000  0.23320898  1
  Zr  Zr7  1  0.18146287  0.75000000  0.26679102  1
  Zr  Zr8  1  0.17281679  0.25000000  0.28873693  1
  Zr  Zr9  1  0.67281679  0.75000000  0.21126307  1
  Zr  Zr10  1  0.82718321  0.75000000  0.71126307  1
  Zr  Zr11  1  0.32718321  0.25000000  0.78873693  1
  Zr  Zr12  1  0.19941923  0.44396369  0.55316199  1
  Zr  Zr13  1  0.69941923  0.55603631  0.94683801  1
  Zr  Zr14  1  0.80058077  0.94396369  0.44683801  1
  Zr  Zr15  1  0.30058077  0.05603631  0.05316199  1
  Zr  Zr16  1  0.80058077  0.55603631  0.44683801  1
  Zr  Zr17  1  0.30058077  0.44396369  0.05316199  1
  Zr  Zr18  1  0.19941923  0.05603631  0.55316199  1
  Zr  Zr19  1  0.69941923  0.94396369  0.94683801  1
  Sb  Sb20  1  0.08928343  0.75000000  0.52549097  1
  Sb  Sb21  1  0.58928343  0.25000000  0.97450903  1
  Sb  Sb22  1  0.91071657  0.25000000  0.47450903  1
  Sb  Sb23  1  0.41071657  0.75000000  0.02549097  1
  Sb  Sb24  1  0.06574909  0.00778915  0.82216827  1
  Sb  Sb25  1  0.56574909  0.99221085  0.67783173  1
  Sb  Sb26  1  0.93425091  0.50778915  0.17783173  1
  Sb  Sb27  1  0.43425091  0.49221085  0.32216827  1
  Sb  Sb28  1  0.93425091  0.99221085  0.17783173  1
  Sb  Sb29  1  0.43425091  0.00778915  0.32216827  1
  Sb  Sb30  1  0.06574909  0.49221085  0.82216827  1
  Sb  Sb31  1  0.56574909  0.50778915  0.67783173  1
