# generated using pymatgen
data_ZnCoPHO5
_symmetry_space_group_name_H-M   'P 1'
_cell_length_a   5.54403562
_cell_length_b   9.77004181
_cell_length_c   8.27179241
_cell_angle_alpha   70.50113821
_cell_angle_beta   96.00911369
_cell_angle_gamma   91.87740720
_symmetry_Int_Tables_number   1
_chemical_formula_structural   ZnCoPHO5
_chemical_formula_sum   'Zn4 Co4 P4 H4 O20'
_cell_volume   420.02735362
_cell_formula_units_Z   4
loop_
 _symmetry_equiv_pos_site_id
 _symmetry_equiv_pos_as_xyz
  1  'x, y, z'
loop_
 _atom_site_type_symbol
 _atom_site_label
 _atom_site_symmetry_multiplicity
 _atom_site_fract_x
 _atom_site_fract_y
 _atom_site_fract_z
 _atom_site_occupancy
  Zn  Zn0  1  0.20671199  0.00936259  0.62553732  1
  Zn  Zn1  1  0.20667557  0.50935417  0.12555402  1
  Zn  Zn2  1  0.79331827  0.99063749  0.37446740  1
  Zn  Zn3  1  0.79334532  0.49064329  0.87445231  1
  Co  Co4  1  0.99997564  0.50001601  0.49996675  1
  Co  Co5  1  0.49997676  -0.00000729  0.00003293  1
  Co  Co6  1  0.99997850  0.00001637  -0.00003310  1
  Co  Co7  1  0.49997590  0.49999132  0.50003400  1
  P  P8  1  0.29901263  0.83085047  0.38693332  1
  P  P9  1  0.29904612  0.33086484  0.88693435  1
  P  P10  1  0.70100173  0.16914758  0.61306477  1
  P  P11  1  0.70096396  0.66913521  0.11306430  1
  H  H12  1  0.26139431  0.31164059  0.41200760  1
  H  H13  1  0.26134885  0.81164672  0.91198927  1
  H  H14  1  0.73858884  0.68835959  0.58799719  1
  H  H15  1  0.73863452  0.18835662  0.08801579  1
  O  O16  1  0.44699591  0.15073412  0.52916303  1
  O  O17  1  0.44696499  0.65071617  0.02916711  1
  O  O18  1  0.55302763  0.84925779  0.47082882  1
  O  O19  1  0.55304888  0.34927987  0.97082711  1
  O  O20  1  0.22549375  0.91566414  0.86799233  1
  O  O21  1  0.22549899  0.41565440  0.36800907  1
  O  O22  1  0.77449894  0.08434015  0.13200692  1
  O  O23  1  0.77449221  0.58434622  0.63199314  1
  O  O24  1  0.27428082  0.92303611  0.19524299  1
  O  O25  1  0.27430426  0.42303913  0.69524518  1
  O  O26  1  0.72572486  0.07695798  0.80475270  1
  O  O27  1  0.72569529  0.57695846  0.30475251  1
  O  O28  1  0.11073953  0.88762490  0.47687922  1
  O  O29  1  0.11075681  0.38764009  0.97686619  1
  O  O30  1  0.88928187  0.11237931  0.52311924  1
  O  O31  1  0.88925927  0.61236141  0.02313402  1
  O  O32  1  0.25043520  0.67064811  0.41297621  1
  O  O33  1  0.25047687  0.17065467  0.91300023  1
  O  O34  1  0.74955835  0.32934867  0.58702636  1
  O  O35  1  0.74951666  0.82934473  0.08700043  1
