# generated using pymatgen
data_SiO2
_symmetry_space_group_name_H-M   'P 1'
_cell_length_a   7.52578722
_cell_length_b   7.52578722
_cell_length_c   8.68358089
_cell_angle_alpha   90.00000000
_cell_angle_beta   90.00000000
_cell_angle_gamma   90.00000000
_symmetry_Int_Tables_number   1
_chemical_formula_structural   SiO2
_chemical_formula_sum   'Si12 O24'
_cell_volume   491.81608064
_cell_formula_units_Z   12
loop_
 _symmetry_equiv_pos_site_id
 _symmetry_equiv_pos_as_xyz
  1  'x, y, z'
loop_
 _atom_site_type_symbol
 _atom_site_label
 _atom_site_symmetry_multiplicity
 _atom_site_fract_x
 _atom_site_fract_y
 _atom_site_fract_z
 _atom_site_occupancy
  Si  Si0  1  0.91597476  0.08402524  0.25000000  1
  Si  Si1  1  0.37979734  0.82611476  0.99700326  1
  Si  Si2  1  0.82611476  0.37979734  0.00299674  1
  Si  Si3  1  0.12020266  0.32611476  0.75299674  1
  Si  Si4  1  0.87979734  0.67388524  0.25299674  1
  Si  Si5  1  0.58402524  0.58402524  0.50000000  1
  Si  Si6  1  0.67388524  0.87979734  0.74700326  1
  Si  Si7  1  0.41597476  0.41597476  0.00000000  1
  Si  Si8  1  0.17388524  0.62020266  0.50299674  1
  Si  Si9  1  0.32611476  0.12020266  0.24700326  1
  Si  Si10  1  0.62020266  0.17388524  0.49700326  1
  Si  Si11  1  0.08402524  0.91597476  0.75000000  1
  O  O12  1  0.37609082  0.94462553  0.15050774  1
  O  O13  1  0.37959727  0.61590410  0.45371827  1
  O  O14  1  0.79647862  0.13624617  0.39673274  1
  O  O15  1  0.87959727  0.88409590  0.79628173  1
  O  O16  1  0.62390918  0.05537447  0.65050774  1
  O  O17  1  0.88409590  0.87959727  0.20371827  1
  O  O18  1  0.20352138  0.86375383  0.89673274  1
  O  O19  1  0.94462553  0.37609082  0.84949226  1
  O  O20  1  0.87609082  0.55537447  0.09949226  1
  O  O21  1  0.05537447  0.62390918  0.34949226  1
  O  O22  1  0.12040273  0.11590410  0.29628173  1
  O  O23  1  0.29647862  0.36375383  0.85326726  1
  O  O24  1  0.12390918  0.44462553  0.59949226  1
  O  O25  1  0.61590410  0.37959727  0.54628173  1
  O  O26  1  0.44462553  0.12390918  0.40050774  1
  O  O27  1  0.13624617  0.79647862  0.60326726  1
  O  O28  1  0.63624617  0.70352138  0.64673274  1
  O  O29  1  0.55537447  0.87609082  0.90050774  1
  O  O30  1  0.11590410  0.12040273  0.70371827  1
  O  O31  1  0.62040273  0.38409590  0.95371827  1
  O  O32  1  0.70352138  0.63624617  0.35326726  1
  O  O33  1  0.38409590  0.62040273  0.04628173  1
  O  O34  1  0.36375383  0.29647862  0.14673274  1
  O  O35  1  0.86375383  0.20352138  0.10326726  1
