# generated using pymatgen
data_Er3O2F5
_symmetry_space_group_name_H-M   'P 1'
_cell_length_a   5.29668432
_cell_length_b   5.55242335
_cell_length_c   16.89802247
_cell_angle_alpha   90.00000000
_cell_angle_beta   90.00000000
_cell_angle_gamma   90.00000000
_symmetry_Int_Tables_number   1
_chemical_formula_structural   Er3O2F5
_chemical_formula_sum   'Er12 O8 F20'
_cell_volume   496.96127142
_cell_formula_units_Z   4
loop_
 _symmetry_equiv_pos_site_id
 _symmetry_equiv_pos_as_xyz
  1  'x, y, z'
loop_
 _atom_site_type_symbol
 _atom_site_label
 _atom_site_symmetry_multiplicity
 _atom_site_fract_x
 _atom_site_fract_y
 _atom_site_fract_z
 _atom_site_occupancy
  Er  Er0  1  0.03810861  0.32553575  0.40268490  1
  Er  Er1  1  0.96189139  0.67446425  0.59731510  1
  Er  Er2  1  0.53810861  0.17446425  0.90268490  1
  Er  Er3  1  0.03810861  0.32553575  0.09731510  1
  Er  Er4  1  0.45815873  0.26185531  0.25000000  1
  Er  Er5  1  0.53810861  0.17446425  0.59731510  1
  Er  Er6  1  0.95815873  0.23814469  0.75000000  1
  Er  Er7  1  0.96189139  0.67446425  0.90268490  1
  Er  Er8  1  0.04184127  0.76185531  0.25000000  1
  Er  Er9  1  0.46189139  0.82553575  0.40268490  1
  Er  Er10  1  0.46189139  0.82553575  0.09731510  1
  Er  Er11  1  0.54184127  0.73814469  0.75000000  1
  O  O12  1  0.70282600  0.46250970  0.66843800  1
  O  O13  1  0.29717400  0.53749030  0.16843800  1
  O  O14  1  0.79717400  0.96250970  0.83156200  1
  O  O15  1  0.20282600  0.03749030  0.16843800  1
  O  O16  1  0.79717400  0.96250970  0.66843800  1
  O  O17  1  0.70282600  0.46250970  0.83156200  1
  O  O18  1  0.20282600  0.03749030  0.33156200  1
  O  O19  1  0.29717400  0.53749030  0.33156200  1
  F  F20  1  0.86198517  0.38566808  0.25000000  1
  F  F21  1  0.36198517  0.11433192  0.75000000  1
  F  F22  1  0.28481644  0.11630105  0.48623805  1
  F  F23  1  0.67332221  0.16392419  0.37382911  1
  F  F24  1  0.32667779  0.83607581  0.62617089  1
  F  F25  1  0.17332221  0.33607581  0.87382911  1
  F  F26  1  0.28481644  0.11630105  0.01376195  1
  F  F27  1  0.71518356  0.88369895  0.51376195  1
  F  F28  1  0.21518356  0.61630105  0.01376195  1
  F  F29  1  0.82667779  0.66392419  0.12617089  1
  F  F30  1  0.71518356  0.88369895  0.98623805  1
  F  F31  1  0.63801483  0.88566808  0.25000000  1
  F  F32  1  0.67332221  0.16392419  0.12617089  1
  F  F33  1  0.78481644  0.38369895  0.98623805  1
  F  F34  1  0.17332221  0.33607581  0.62617089  1
  F  F35  1  0.32667779  0.83607581  0.87382911  1
  F  F36  1  0.78481644  0.38369895  0.51376195  1
  F  F37  1  0.21518356  0.61630105  0.48623805  1
  F  F38  1  0.13801483  0.61433192  0.75000000  1
  F  F39  1  0.82667779  0.66392419  0.37382911  1
