# generated using pymatgen
data_CoAsSe
_symmetry_space_group_name_H-M   'P 1'
_cell_length_a   5.73336531
_cell_length_b   5.81912792
_cell_length_c   11.46488735
_cell_angle_alpha   90.00000000
_cell_angle_beta   90.00000000
_cell_angle_gamma   90.00000000
_symmetry_Int_Tables_number   1
_chemical_formula_structural   CoAsSe
_chemical_formula_sum   'Co8 As8 Se8'
_cell_volume   382.50517086
_cell_formula_units_Z   8
loop_
 _symmetry_equiv_pos_site_id
 _symmetry_equiv_pos_as_xyz
  1  'x, y, z'
loop_
 _atom_site_type_symbol
 _atom_site_label
 _atom_site_symmetry_multiplicity
 _atom_site_fract_x
 _atom_site_fract_y
 _atom_site_fract_z
 _atom_site_occupancy
  Co  Co0  1  0.00333628  0.17607509  0.37344258  1
  Co  Co1  1  0.50333628  0.32392491  0.62655742  1
  Co  Co2  1  0.99666372  0.67607509  0.12655742  1
  Co  Co3  1  0.49666372  0.82392491  0.87344258  1
  Co  Co4  1  0.99666372  0.82392491  0.62655742  1
  Co  Co5  1  0.49666372  0.67607509  0.37344258  1
  Co  Co6  1  0.00333628  0.32392491  0.87344258  1
  Co  Co7  1  0.50333628  0.17607509  0.12655742  1
  As  As8  1  0.36894770  0.31534295  0.43459080  1
  As  As9  1  0.86894770  0.18465705  0.56540920  1
  As  As10  1  0.63105230  0.81534295  0.06540920  1
  As  As11  1  0.13105230  0.68465705  0.93459080  1
  As  As12  1  0.63105230  0.68465705  0.56540920  1
  As  As13  1  0.13105230  0.81534295  0.43459080  1
  As  As14  1  0.36894770  0.18465705  0.93459080  1
  As  As15  1  0.86894770  0.31534295  0.06540920  1
  Se  Se16  1  0.12113314  0.06019471  0.17984679  1
  Se  Se17  1  0.62113314  0.43980529  0.82015321  1
  Se  Se18  1  0.87886686  0.56019471  0.32015321  1
  Se  Se19  1  0.37886686  0.93980529  0.67984679  1
  Se  Se20  1  0.87886686  0.93980529  0.82015321  1
  Se  Se21  1  0.37886686  0.56019471  0.17984679  1
  Se  Se22  1  0.12113314  0.43980529  0.67984679  1
  Se  Se23  1  0.62113314  0.06019471  0.32015321  1
