# generated using pymatgen
data_Pr(AsPd)2
_symmetry_space_group_name_H-M   'P 1'
_cell_length_a   4.29343238
_cell_length_b   4.29343214
_cell_length_c   6.04656891
_cell_angle_alpha   110.79530797
_cell_angle_beta   110.79531513
_cell_angle_gamma   90.00000258
_symmetry_Int_Tables_number   1
_chemical_formula_structural   Pr(AsPd)2
_chemical_formula_sum   'Pr1 As2 Pd2'
_cell_volume   96.39221424
_cell_formula_units_Z   1
loop_
 _symmetry_equiv_pos_site_id
 _symmetry_equiv_pos_as_xyz
  1  'x, y, z'
loop_
 _atom_site_type_symbol
 _atom_site_label
 _atom_site_symmetry_multiplicity
 _atom_site_fract_x
 _atom_site_fract_y
 _atom_site_fract_z
 _atom_site_occupancy
  Pr  Pr0  1  -0.00000000  -0.00000000  -0.00000000  1
  As  As1  1  0.38016060  0.38016060  0.76032120  1
  As  As2  1  0.61983940  0.61983940  0.23967880  1
  Pd  Pd3  1  0.75000000  0.25000000  0.50000000  1
  Pd  Pd4  1  0.25000000  0.75000000  0.50000000  1
