# generated using pymatgen
data_K(CoAs)2
_symmetry_space_group_name_H-M   'P 1'
_cell_length_a   3.73993788
_cell_length_b   3.73993850
_cell_length_c   7.31469003
_cell_angle_alpha   104.81184143
_cell_angle_beta   104.81184006
_cell_angle_gamma   90.00000071
_symmetry_Int_Tables_number   1
_chemical_formula_structural   K(CoAs)2
_chemical_formula_sum   'K1 Co2 As2'
_cell_volume   95.39097594
_cell_formula_units_Z   1
loop_
 _symmetry_equiv_pos_site_id
 _symmetry_equiv_pos_as_xyz
  1  'x, y, z'
loop_
 _atom_site_type_symbol
 _atom_site_label
 _atom_site_symmetry_multiplicity
 _atom_site_fract_x
 _atom_site_fract_y
 _atom_site_fract_z
 _atom_site_occupancy
  K  K0  1  0.00000000  -0.00000000  -0.00000000  1
  Co  Co1  1  0.25000000  0.75000000  0.50000000  1
  Co  Co2  1  0.75000000  0.25000000  0.50000000  1
  As  As3  1  0.34654935  0.34654935  0.69309971  1
  As  As4  1  0.65345065  0.65345065  0.30690029  1
