# generated using pymatgen
data_La3CI5
_symmetry_space_group_name_H-M   'P 1'
_cell_length_a   8.08891052
_cell_length_b   9.79754132
_cell_length_c   9.89183735
_cell_angle_alpha   107.35828784
_cell_angle_beta   97.40299106
_cell_angle_gamma   105.12944358
_symmetry_Int_Tables_number   1
_chemical_formula_structural   La3CI5
_chemical_formula_sum   'La6 C2 I10'
_cell_volume   703.89131023
_cell_formula_units_Z   2
loop_
 _symmetry_equiv_pos_site_id
 _symmetry_equiv_pos_as_xyz
  1  'x, y, z'
loop_
 _atom_site_type_symbol
 _atom_site_label
 _atom_site_symmetry_multiplicity
 _atom_site_fract_x
 _atom_site_fract_y
 _atom_site_fract_z
 _atom_site_occupancy
  La  La0  1  0.62237908  0.86104123  0.81505939  1
  La  La1  1  0.02922388  0.72875826  0.92202552  1
  La  La2  1  0.10700236  0.04053420  0.77344610  1
  La  La3  1  0.97077612  0.27124174  0.07797448  1
  La  La4  1  0.89299764  0.95946580  0.22655390  1
  La  La5  1  0.37762092  0.13895877  0.18494061  1
  C  C6  1  0.08692229  0.03091479  0.04175147  1
  C  C7  1  0.91307771  0.96908521  0.95824853  1
  I  I8  1  0.18526629  0.72851886  0.63947641  1
  I  I9  1  0.91026366  0.62667726  0.18323700  1
  I  I10  1  0.08973634  0.37332274  0.81676300  1
  I  I11  1  0.73978208  0.91196394  0.53172238  1
  I  I12  1  0.26021792  0.08803606  0.46827762  1
  I  I13  1  0.64817701  0.53303258  0.72164380  1
  I  I14  1  0.45541957  0.80785206  0.09197568  1
  I  I15  1  0.81473371  0.27148114  0.36052359  1
  I  I16  1  0.35182299  0.46696742  0.27835620  1
  I  I17  1  0.54458043  0.19214794  0.90802432  1
