# generated using pymatgen
data_CsMnF4
_symmetry_space_group_name_H-M   'P 1'
_cell_length_a   7.87135118
_cell_length_b   7.87135118
_cell_length_c   6.35135880
_cell_angle_alpha   90.00000000
_cell_angle_beta   90.00000000
_cell_angle_gamma   90.00000000
_symmetry_Int_Tables_number   1
_chemical_formula_structural   CsMnF4
_chemical_formula_sum   'Cs4 Mn4 F16'
_cell_volume   393.51856444
_cell_formula_units_Z   4
loop_
 _symmetry_equiv_pos_site_id
 _symmetry_equiv_pos_as_xyz
  1  'x, y, z'
loop_
 _atom_site_type_symbol
 _atom_site_label
 _atom_site_symmetry_multiplicity
 _atom_site_fract_x
 _atom_site_fract_y
 _atom_site_fract_z
 _atom_site_occupancy
  Cs  Cs0  1  -0.00000000  -0.00000000  0.50000000  1
  Cs  Cs1  1  0.50000000  0.50000000  0.50000000  1
  Cs  Cs2  1  -0.00000000  0.50000000  0.44204115  1
  Cs  Cs3  1  0.50000000  -0.00000000  0.55795885  1
  Mn  Mn4  1  0.75000000  0.25000000  -0.00000000  1
  Mn  Mn5  1  0.75000000  0.75000000  -0.00000000  1
  Mn  Mn6  1  0.25000000  0.25000000  -0.00000000  1
  Mn  Mn7  1  0.25000000  0.75000000  -0.00000000  1
  F  F8  1  0.74707594  0.50000000  0.04550043  1
  F  F9  1  -0.00000000  0.75292406  0.04550043  1
  F  F10  1  -0.00000000  0.24707594  0.04550043  1
  F  F11  1  0.25292406  0.50000000  0.04550043  1
  F  F12  1  0.75292406  -0.00000000  0.95449957  1
  F  F13  1  0.24707594  -0.00000000  0.95449957  1
  F  F14  1  0.50000000  0.74707594  0.95449957  1
  F  F15  1  0.50000000  0.25292406  0.95449957  1
  F  F16  1  0.72167156  0.22167156  0.28463677  1
  F  F17  1  0.72167156  0.77832844  0.28463677  1
  F  F18  1  0.27832844  0.22167156  0.28463677  1
  F  F19  1  0.27832844  0.77832844  0.28463677  1
  F  F20  1  0.77832844  0.72167156  0.71536323  1
  F  F21  1  0.22167156  0.27832844  0.71536323  1
  F  F22  1  0.22167156  0.72167156  0.71536323  1
  F  F23  1  0.77832844  0.27832844  0.71536323  1
