# generated using pymatgen
data_AgTe
_symmetry_space_group_name_H-M   'P 1'
_cell_length_a   4.78356307
_cell_length_b   8.96352613
_cell_length_c   20.05097390
_cell_angle_alpha   90.00000000
_cell_angle_beta   90.00000000
_cell_angle_gamma   90.00000000
_symmetry_Int_Tables_number   1
_chemical_formula_structural   AgTe
_chemical_formula_sum   'Ag16 Te16'
_cell_volume   859.73748956
_cell_formula_units_Z   16
loop_
 _symmetry_equiv_pos_site_id
 _symmetry_equiv_pos_as_xyz
  1  'x, y, z'
loop_
 _atom_site_type_symbol
 _atom_site_label
 _atom_site_symmetry_multiplicity
 _atom_site_fract_x
 _atom_site_fract_y
 _atom_site_fract_z
 _atom_site_occupancy
  Ag  Ag0  1  0.42032903  0.99473660  0.07149005  1
  Ag  Ag1  1  0.69664477  0.25000000  0.84030859  1
  Ag  Ag2  1  0.57967097  0.49473660  0.92850995  1
  Ag  Ag3  1  0.19664477  0.75000000  0.65969141  1
  Ag  Ag4  1  0.28418493  0.75000000  0.43999208  1
  Ag  Ag5  1  0.07967097  0.99473660  0.57149005  1
  Ag  Ag6  1  0.78418493  0.25000000  0.06000792  1
  Ag  Ag7  1  0.42032903  0.50526340  0.07149005  1
  Ag  Ag8  1  0.92032903  0.49473660  0.42850995  1
  Ag  Ag9  1  0.21581507  0.75000000  0.93999208  1
  Ag  Ag10  1  0.57967097  0.00526340  0.92850995  1
  Ag  Ag11  1  0.07967097  0.50526340  0.57149005  1
  Ag  Ag12  1  0.30335523  0.75000000  0.15969141  1
  Ag  Ag13  1  0.71581507  0.25000000  0.56000792  1
  Ag  Ag14  1  0.80335523  0.25000000  0.34030859  1
  Ag  Ag15  1  0.92032903  0.00526340  0.42850995  1
  Te  Te16  1  0.54114595  0.01914898  0.65705226  1
  Te  Te17  1  0.04114595  0.98085102  0.84294774  1
  Te  Te18  1  0.70380352  0.75000000  0.26154020  1
  Te  Te19  1  0.79619648  0.75000000  0.76154020  1
  Te  Te20  1  0.04114595  0.51914898  0.84294774  1
  Te  Te21  1  0.79453871  0.75000000  0.51794870  1
  Te  Te22  1  0.20380352  0.25000000  0.23845980  1
  Te  Te23  1  0.54114595  0.48085102  0.65705226  1
  Te  Te24  1  0.45885405  0.51914898  0.34294774  1
  Te  Te25  1  0.20546129  0.25000000  0.48205130  1
  Te  Te26  1  0.45885405  0.98085102  0.34294774  1
  Te  Te27  1  0.70546129  0.75000000  0.01794870  1
  Te  Te28  1  0.95885405  0.01914898  0.15705226  1
  Te  Te29  1  0.29619648  0.25000000  0.73845980  1
  Te  Te30  1  0.29453871  0.25000000  0.98205130  1
  Te  Te31  1  0.95885405  0.48085102  0.15705226  1
