# generated using pymatgen
data_Mg3Nb6O11
_symmetry_space_group_name_H-M   'P 1'
_cell_length_a   6.08901898
_cell_length_b   6.08901930
_cell_length_c   7.49807318
_cell_angle_alpha   90.00000000
_cell_angle_beta   90.00000000
_cell_angle_gamma   120.00000932
_symmetry_Int_Tables_number   1
_chemical_formula_structural   Mg3Nb6O11
_chemical_formula_sum   'Mg3 Nb6 O11'
_cell_volume   240.75479430
_cell_formula_units_Z   1
loop_
 _symmetry_equiv_pos_site_id
 _symmetry_equiv_pos_as_xyz
  1  'x, y, z'
loop_
 _atom_site_type_symbol
 _atom_site_label
 _atom_site_symmetry_multiplicity
 _atom_site_fract_x
 _atom_site_fract_y
 _atom_site_fract_z
 _atom_site_occupancy
  Mg  Mg0  1  0.00000000  -0.00000000  0.50000000  1
  Mg  Mg1  1  0.33333300  0.66666700  0.57606794  1
  Mg  Mg2  1  0.66666700  0.33333300  0.42393206  1
  Nb  Nb3  1  0.15420816  0.84579184  0.15345926  1
  Nb  Nb4  1  0.15420816  0.30841932  0.15345926  1
  Nb  Nb5  1  0.69158068  0.84579184  0.15345926  1
  Nb  Nb6  1  0.30841932  0.15420816  0.84654074  1
  Nb  Nb7  1  0.84579184  0.69158068  0.84654074  1
  Nb  Nb8  1  0.84579184  0.15420816  0.84654074  1
  O  O9  1  0.50000000  0.50000000  0.00000000  1
  O  O10  1  0.50000000  -0.00000000  0.00000000  1
  O  O11  1  0.00000000  0.50000000  0.00000000  1
  O  O12  1  0.15621145  0.84378855  0.67156124  1
  O  O13  1  0.15621145  0.31242290  0.67156124  1
  O  O14  1  0.68757710  0.84378855  0.67156124  1
  O  O15  1  0.31242290  0.15621145  0.32843876  1
  O  O16  1  0.84378855  0.68757710  0.32843876  1
  O  O17  1  0.84378855  0.15621145  0.32843876  1
  O  O18  1  0.33333300  0.66666700  0.31346307  1
  O  O19  1  0.66666700  0.33333300  0.68653693  1
