# generated using pymatgen
data_Tl(CuTe)2
_symmetry_space_group_name_H-M   'P 1'
_cell_length_a   4.01568395
_cell_length_b   4.01568488
_cell_length_c   8.23273537
_cell_angle_alpha   104.11596449
_cell_angle_beta   104.11595753
_cell_angle_gamma   90.00000699
_symmetry_Int_Tables_number   1
_chemical_formula_structural   Tl(CuTe)2
_chemical_formula_sum   'Tl1 Cu2 Te2'
_cell_volume   124.61236112
_cell_formula_units_Z   1
loop_
 _symmetry_equiv_pos_site_id
 _symmetry_equiv_pos_as_xyz
  1  'x, y, z'
loop_
 _atom_site_type_symbol
 _atom_site_label
 _atom_site_symmetry_multiplicity
 _atom_site_fract_x
 _atom_site_fract_y
 _atom_site_fract_z
 _atom_site_occupancy
  Tl  Tl0  1  0.00000000  -0.00000000  0.00000000  1
  Cu  Cu1  1  0.75000000  0.25000000  0.50000000  1
  Cu  Cu2  1  0.25000000  0.75000000  0.50000000  1
  Te  Te3  1  0.64161815  0.64161815  0.28323530  1
  Te  Te4  1  0.35838185  0.35838185  0.71676470  1
