# generated using pymatgen
data_Pr6RuBr10
_symmetry_space_group_name_H-M   'P 1'
_cell_length_a   7.71272809
_cell_length_b   9.46504591
_cell_length_c   9.56569544
_cell_angle_alpha   109.19165473
_cell_angle_beta   96.95365495
_cell_angle_gamma   106.92719593
_symmetry_Int_Tables_number   1
_chemical_formula_structural   Pr6RuBr10
_chemical_formula_sum   'Pr6 Ru1 Br10'
_cell_volume   612.49778923
_cell_formula_units_Z   1
loop_
 _symmetry_equiv_pos_site_id
 _symmetry_equiv_pos_as_xyz
  1  'x, y, z'
loop_
 _atom_site_type_symbol
 _atom_site_label
 _atom_site_symmetry_multiplicity
 _atom_site_fract_x
 _atom_site_fract_y
 _atom_site_fract_z
 _atom_site_occupancy
  Pr  Pr0  1  0.13014349  0.05049801  0.75549116  1
  Pr  Pr1  1  0.62283566  0.84892148  0.80515839  1
  Pr  Pr2  1  0.86985651  0.94950199  0.24450884  1
  Pr  Pr3  1  0.02695602  0.70398465  0.90510989  1
  Pr  Pr4  1  0.37716434  0.15107852  0.19484161  1
  Pr  Pr5  1  0.97304398  0.29601535  0.09489011  1
  Ru  Ru6  1  0.00000000  0.00000000  0.00000000  1
  Br  Br7  1  0.19515486  0.73742930  0.64248270  1
  Br  Br8  1  0.63881697  0.52999095  0.71727156  1
  Br  Br9  1  0.25381606  0.08006026  0.45571352  1
  Br  Br10  1  0.80484514  0.26257070  0.35751730  1
  Br  Br11  1  0.55200083  0.17604501  0.92027082  1
  Br  Br12  1  0.74618394  0.91993974  0.54428648  1
  Br  Br13  1  0.90317369  0.62631898  0.16776109  1
  Br  Br14  1  0.36118303  0.47000905  0.28272844  1
  Br  Br15  1  0.09682631  0.37368102  0.83223891  1
  Br  Br16  1  0.44799917  0.82395499  0.07972918  1
