# generated using pymatgen
data_LaGeI
_symmetry_space_group_name_H-M   'P 1'
_cell_length_a   4.40554940
_cell_length_b   4.40555095
_cell_length_c   11.92073994
_cell_angle_alpha   90.00000000
_cell_angle_beta   90.00000000
_cell_angle_gamma   120.00000398
_symmetry_Int_Tables_number   1
_chemical_formula_structural   LaGeI
_chemical_formula_sum   'La2 Ge2 I2'
_cell_volume   200.37066117
_cell_formula_units_Z   2
loop_
 _symmetry_equiv_pos_site_id
 _symmetry_equiv_pos_as_xyz
  1  'x, y, z'
loop_
 _atom_site_type_symbol
 _atom_site_label
 _atom_site_symmetry_multiplicity
 _atom_site_fract_x
 _atom_site_fract_y
 _atom_site_fract_z
 _atom_site_occupancy
  La  La0  1  -0.00000000  -0.00000000  0.17202414  1
  La  La1  1  0.00000000  0.00000000  0.82797586  1
  Ge  Ge2  1  0.33333300  0.66666700  0.99076891  1
  Ge  Ge3  1  0.66666700  0.33333300  0.00923109  1
  I  I4  1  0.66666700  0.33333300  0.65036090  1
  I  I5  1  0.33333300  0.66666700  0.34963910  1
