# generated using pymatgen
data_KYP2O7
_symmetry_space_group_name_H-M   'P 1'
_cell_length_a   7.55283602
_cell_length_b   8.59399284
_cell_length_c   10.95318287
_cell_angle_alpha   90.00000000
_cell_angle_beta   90.00000000
_cell_angle_gamma   107.53414731
_symmetry_Int_Tables_number   1
_chemical_formula_structural   KYP2O7
_chemical_formula_sum   'K4 Y4 P8 O28'
_cell_volume   677.92740315
_cell_formula_units_Z   4
loop_
 _symmetry_equiv_pos_site_id
 _symmetry_equiv_pos_as_xyz
  1  'x, y, z'
loop_
 _atom_site_type_symbol
 _atom_site_label
 _atom_site_symmetry_multiplicity
 _atom_site_fract_x
 _atom_site_fract_y
 _atom_site_fract_z
 _atom_site_occupancy
  K  K0  1  0.82740991  0.42646550  0.81969512  1
  K  K1  1  0.82740991  0.92646550  0.68030488  1
  K  K2  1  0.17259009  0.07353450  0.31969512  1
  K  K3  1  0.17259009  0.57353450  0.18030488  1
  Y  Y4  1  0.23000290  0.74956464  0.59320762  1
  Y  Y5  1  0.76999710  0.75043536  0.09320762  1
  Y  Y6  1  0.23000290  0.24956464  0.90679238  1
  Y  Y7  1  0.76999710  0.25043536  0.40679238  1
  P  P8  1  0.87160682  0.19227788  0.10472648  1
  P  P9  1  0.12839318  0.30772212  0.60472648  1
  P  P10  1  0.87160682  0.69227788  0.39527352  1
  P  P11  1  0.12839318  0.80772212  0.89527352  1
  P  P12  1  0.55326504  0.80708818  0.35379498  1
  P  P13  1  0.44673496  0.69291182  0.85379498  1
  P  P14  1  0.44673496  0.19291182  0.64620502  1
  P  P15  1  0.55326504  0.30708818  0.14620502  1
  O  O16  1  0.36247425  0.25545374  0.08877152  1
  O  O17  1  0.87155230  0.01808982  0.09739583  1
  O  O18  1  0.06741495  0.23385339  0.72965845  1
  O  O19  1  0.93258505  0.26614661  0.22965845  1
  O  O20  1  0.87155230  0.51808982  0.40260417  1
  O  O21  1  0.33867916  0.30793179  0.58251947  1
  O  O22  1  0.66355633  0.98033901  0.38420822  1
  O  O23  1  0.98585320  0.79607076  0.49650557  1
  O  O24  1  0.01414680  0.70392924  0.99650557  1
  O  O25  1  0.66132084  0.69206821  0.41748053  1
  O  O26  1  0.36247425  0.75545374  0.41122848  1
  O  O27  1  0.54069577  0.26671101  0.28108883  1
  O  O28  1  0.01414680  0.20392924  0.50349443  1
  O  O29  1  0.66132084  0.19206821  0.08251947  1
  O  O30  1  0.93258505  0.76614661  0.27034155  1
  O  O31  1  0.12844770  0.98191018  0.90260417  1
  O  O32  1  0.33867916  0.80793179  0.91748053  1
  O  O33  1  0.33644367  0.51966099  0.88420822  1
  O  O34  1  0.63752575  0.24454626  0.58877152  1
  O  O35  1  0.45930423  0.73328899  0.71891117  1
  O  O36  1  0.12844770  0.48191018  0.59739583  1
  O  O37  1  0.33644367  0.01966099  0.61579178  1
  O  O38  1  0.63752575  0.74454626  0.91122848  1
  O  O39  1  0.66355633  0.48033901  0.11579178  1
  O  O40  1  0.98585320  0.29607076  0.00349443  1
  O  O41  1  0.54069577  0.76671101  0.21891117  1
  O  O42  1  0.06741495  0.73385339  0.77034155  1
  O  O43  1  0.45930423  0.23328899  0.78108883  1
