# generated using pymatgen
data_Pr(AlGa)2
_symmetry_space_group_name_H-M   'P 1'
_cell_length_a   4.20103760
_cell_length_b   4.20104823
_cell_length_c   6.31890690
_cell_angle_alpha   108.96721927
_cell_angle_beta   108.96696760
_cell_angle_gamma   90.08970747
_symmetry_Int_Tables_number   1
_chemical_formula_structural   Pr(AlGa)2
_chemical_formula_sum   'Pr1 Al2 Ga2'
_cell_volume   99.02050525
_cell_formula_units_Z   1
loop_
 _symmetry_equiv_pos_site_id
 _symmetry_equiv_pos_as_xyz
  1  'x, y, z'
loop_
 _atom_site_type_symbol
 _atom_site_label
 _atom_site_symmetry_multiplicity
 _atom_site_fract_x
 _atom_site_fract_y
 _atom_site_fract_z
 _atom_site_occupancy
  Pr  Pr0  1  -0.00000000  0.00000000  -0.00000000  1
  Al  Al1  1  0.24739721  0.75260379  0.50000000  1
  Al  Al2  1  0.75260279  0.24739621  0.50000000  1
  Ga  Ga3  1  0.61111248  0.61111348  0.22422063  1
  Ga  Ga4  1  0.38888752  0.38888652  0.77577937  1
