# generated using pymatgen
data_Gd2WO6
_symmetry_space_group_name_H-M   'P 1'
_cell_length_a   5.29226211
_cell_length_b   9.16306733
_cell_length_c   10.02371148
_cell_angle_alpha   90.00000000
_cell_angle_beta   90.00000000
_cell_angle_gamma   90.00000000
_symmetry_Int_Tables_number   1
_chemical_formula_structural   Gd2WO6
_chemical_formula_sum   'Gd8 W4 O24'
_cell_volume   486.08338961
_cell_formula_units_Z   4
loop_
 _symmetry_equiv_pos_site_id
 _symmetry_equiv_pos_as_xyz
  1  'x, y, z'
loop_
 _atom_site_type_symbol
 _atom_site_label
 _atom_site_symmetry_multiplicity
 _atom_site_fract_x
 _atom_site_fract_y
 _atom_site_fract_z
 _atom_site_occupancy
  Gd  Gd0  1  0.47883984  0.60363175  0.53512846  1
  Gd  Gd1  1  0.97883984  0.89636825  0.46487154  1
  Gd  Gd2  1  0.52116016  0.10363175  0.96487154  1
  Gd  Gd3  1  0.02116016  0.39636825  0.03512846  1
  Gd  Gd4  1  0.96534745  0.78093678  0.87042379  1
  Gd  Gd5  1  0.46534745  0.71906322  0.12957621  1
  Gd  Gd6  1  0.03465255  0.28093678  0.62957621  1
  Gd  Gd7  1  0.53465255  0.21906322  0.37042379  1
  W  W8  1  0.45986674  0.99577604  0.65142454  1
  W  W9  1  0.95986674  0.50422396  0.34857546  1
  W  W10  1  0.54013326  0.49577604  0.84857546  1
  W  W11  1  0.04013326  0.00422396  0.15142454  1
  O  O12  1  0.25115790  0.08979673  0.50769203  1
  O  O13  1  0.75115790  0.41020327  0.49230797  1
  O  O14  1  0.74884210  0.58979673  0.99230797  1
  O  O15  1  0.24884210  0.91020327  0.00769203  1
  O  O16  1  0.72725629  0.11228557  0.56698545  1
  O  O17  1  0.22725629  0.38771443  0.43301455  1
  O  O18  1  0.27274371  0.61228557  0.93301455  1
  O  O19  1  0.77274371  0.88771443  0.06698545  1
  O  O20  1  0.18626579  0.86349960  0.67996313  1
  O  O21  1  0.68626579  0.63650040  0.32003687  1
  O  O22  1  0.81373421  0.36349960  0.82003687  1
  O  O23  1  0.31373421  0.13650040  0.17996313  1
  O  O24  1  0.19011106  0.86119487  0.26244240  1
  O  O25  1  0.69011106  0.63880513  0.73755760  1
  O  O26  1  0.80988894  0.36119487  0.23755760  1
  O  O27  1  0.30988894  0.13880513  0.76244240  1
  O  O28  1  0.82675524  0.04801373  0.29323708  1
  O  O29  1  0.32675524  0.45198627  0.70676292  1
  O  O30  1  0.17324476  0.54801373  0.20676292  1
  O  O31  1  0.67324476  0.95198627  0.79323708  1
  O  O32  1  0.92216596  0.15379749  0.02901174  1
  O  O33  1  0.42216596  0.34620251  0.97098826  1
  O  O34  1  0.07783404  0.65379749  0.47098826  1
  O  O35  1  0.57783404  0.84620251  0.52901174  1
