# generated using pymatgen
data_PNF2
_symmetry_space_group_name_H-M   'P 1'
_cell_length_a   4.93406868
_cell_length_b   5.00390589
_cell_length_c   5.00390608
_cell_angle_alpha   116.65328118
_cell_angle_beta   90.00000000
_cell_angle_gamma   90.00000000
_symmetry_Int_Tables_number   1
_chemical_formula_structural   PNF2
_chemical_formula_sum   'P2 N2 F4'
_cell_volume   110.41636292
_cell_formula_units_Z   2
loop_
 _symmetry_equiv_pos_site_id
 _symmetry_equiv_pos_as_xyz
  1  'x, y, z'
loop_
 _atom_site_type_symbol
 _atom_site_label
 _atom_site_symmetry_multiplicity
 _atom_site_fract_x
 _atom_site_fract_y
 _atom_site_fract_z
 _atom_site_occupancy
  P  P0  1  0.50404747  0.85945094  0.85945094  1
  P  P1  1  0.00404747  0.14054906  0.14054906  1
  N  N2  1  0.19448638  0.90702402  0.90702402  1
  N  N3  1  0.69448638  0.09297598  0.09297598  1
  F  F4  1  0.07023457  0.45976463  0.18443079  1
  F  F5  1  0.57023457  0.54023537  0.81556921  1
  F  F6  1  0.07023457  0.18443079  0.45976463  1
  F  F7  1  0.57023457  0.81556921  0.54023537  1
