# generated using pymatgen
data_SrCdBi2
_symmetry_space_group_name_H-M   'P 1'
_cell_length_a   4.65950903
_cell_length_b   4.65950954
_cell_length_c   12.20455611
_cell_angle_alpha   101.00485479
_cell_angle_beta   101.00485250
_cell_angle_gamma   90.00000749
_symmetry_Int_Tables_number   1
_chemical_formula_structural   SrCdBi2
_chemical_formula_sum   'Sr2 Cd2 Bi4'
_cell_volume   255.13521819
_cell_formula_units_Z   2
loop_
 _symmetry_equiv_pos_site_id
 _symmetry_equiv_pos_as_xyz
  1  'x, y, z'
loop_
 _atom_site_type_symbol
 _atom_site_label
 _atom_site_symmetry_multiplicity
 _atom_site_fract_x
 _atom_site_fract_y
 _atom_site_fract_z
 _atom_site_occupancy
  Sr  Sr0  1  0.11353622  0.11353622  0.22707344  1
  Sr  Sr1  1  0.88646378  0.88646378  0.77292656  1
  Cd  Cd2  1  0.25000000  0.75000000  0.50000000  1
  Cd  Cd3  1  0.75000000  0.25000000  0.50000000  1
  Bi  Bi4  1  0.66586863  0.66586863  0.33173625  1
  Bi  Bi5  1  0.50000000  0.00000000  0.00000000  1
  Bi  Bi6  1  0.33413137  0.33413137  0.66826375  1
  Bi  Bi7  1  0.00000000  0.50000000  0.00000000  1
