# generated using pymatgen
data_Dy(PO3)3
_symmetry_space_group_name_H-M   'P 1'
_cell_length_a   7.85087047
_cell_length_b   7.85087047
_cell_length_c   10.04511306
_cell_angle_alpha   56.61469013
_cell_angle_beta   56.61469013
_cell_angle_gamma   50.74411487
_symmetry_Int_Tables_number   1
_chemical_formula_structural   Dy(PO3)3
_chemical_formula_sum   'Dy2 P6 O18'
_cell_volume   380.25753580
_cell_formula_units_Z   2
loop_
 _symmetry_equiv_pos_site_id
 _symmetry_equiv_pos_as_xyz
  1  'x, y, z'
loop_
 _atom_site_type_symbol
 _atom_site_label
 _atom_site_symmetry_multiplicity
 _atom_site_fract_x
 _atom_site_fract_y
 _atom_site_fract_z
 _atom_site_occupancy
  Dy  Dy0  1  0.21066205  0.67672477  0.75761217  1
  Dy  Dy1  1  0.67672477  0.21066205  0.25761217  1
  P  P2  1  0.18584978  0.39492459  0.59502035  1
  P  P3  1  0.61958671  0.78288284  0.98364437  1
  P  P4  1  0.18332456  0.00695237  0.92308917  1
  P  P5  1  0.39492459  0.18584978  0.09502035  1
  P  P6  1  0.78288284  0.61958671  0.48364437  1
  P  P7  1  0.00695237  0.18332456  0.42308917  1
  O  O8  1  0.24233961  0.10256056  0.27922530  1
  O  O9  1  0.35147700  0.25607714  0.47738025  1
  O  O10  1  0.94727206  0.57426089  0.55720028  1
  O  O11  1  0.44089534  0.94494418  0.88100662  1
  O  O12  1  0.52270014  0.26159544  0.09948039  1
  O  O13  1  0.25607714  0.35147700  0.97738025  1
  O  O14  1  0.85398953  0.72245591  0.85993764  1
  O  O15  1  0.82960196  0.19080043  0.40150958  1
  O  O16  1  0.26159544  0.52270014  0.59948039  1
  O  O17  1  0.03537441  0.05814962  0.08484903  1
  O  O18  1  0.56986757  0.59152754  0.12494487  1
  O  O19  1  0.72245591  0.85398953  0.35993764  1
  O  O20  1  0.19080043  0.82960196  0.90150958  1
  O  O21  1  0.59152754  0.56986757  0.62494487  1
  O  O22  1  0.10256056  0.24233961  0.77922530  1
  O  O23  1  0.05814962  0.03537441  0.58484903  1
  O  O24  1  0.94494418  0.44089534  0.38100662  1
  O  O25  1  0.57426089  0.94727206  0.05720028  1
