# generated using pymatgen
data_H5CNO3
_symmetry_space_group_name_H-M   'P 1'
_cell_length_a   7.08898234
_cell_length_b   8.66134936
_cell_length_c   10.65465550
_cell_angle_alpha   90.00000000
_cell_angle_beta   90.00000000
_cell_angle_gamma   90.00000000
_symmetry_Int_Tables_number   1
_chemical_formula_structural   H5CNO3
_chemical_formula_sum   'H40 C8 N8 O24'
_cell_volume   654.19747471
_cell_formula_units_Z   8
loop_
 _symmetry_equiv_pos_site_id
 _symmetry_equiv_pos_as_xyz
  1  'x, y, z'
loop_
 _atom_site_type_symbol
 _atom_site_label
 _atom_site_symmetry_multiplicity
 _atom_site_fract_x
 _atom_site_fract_y
 _atom_site_fract_z
 _atom_site_occupancy
  H  H0  1  0.62733447  0.36589094  0.46727943  1
  H  H1  1  0.87266553  0.86589094  0.46727943  1
  H  H2  1  0.66214250  0.44718082  0.06082232  1
  H  H3  1  0.01815531  0.37989180  0.76664981  1
  H  H4  1  0.62733447  0.86589094  0.03272057  1
  H  H5  1  0.70093750  0.00660236  0.93682894  1
  H  H6  1  0.01815531  0.87989180  0.73335019  1
  H  H7  1  0.30955695  0.66678142  0.06596204  1
  H  H8  1  0.80955695  0.33321858  0.56596204  1
  H  H9  1  0.69044305  0.83321858  0.56596204  1
  H  H10  1  0.16214250  0.05281918  0.93917768  1
  H  H11  1  0.12733447  0.13410906  0.53272057  1
  H  H12  1  0.70093750  0.50660236  0.56317106  1
  H  H13  1  0.30955695  0.16678142  0.43403796  1
  H  H14  1  0.80955695  0.83321858  0.93403796  1
  H  H15  1  0.19044305  0.66678142  0.43403796  1
  H  H16  1  0.83785750  0.94718082  0.06082232  1
  H  H17  1  0.20093750  0.49339764  0.06317106  1
  H  H18  1  0.87266553  0.36589094  0.03272057  1
  H  H19  1  0.20093750  0.99339764  0.43682894  1
  H  H20  1  0.79906250  0.50660236  0.93682894  1
  H  H21  1  0.33785750  0.05281918  0.56082232  1
  H  H22  1  0.98184469  0.62010820  0.23335019  1
  H  H23  1  0.19044305  0.16678142  0.06596204  1
  H  H24  1  0.69044305  0.33321858  0.93403796  1
  H  H25  1  0.37266553  0.63410906  0.53272057  1
  H  H26  1  0.29906250  0.99339764  0.06317106  1
  H  H27  1  0.83785750  0.44718082  0.43917768  1
  H  H28  1  0.37266553  0.13410906  0.96727943  1
  H  H29  1  0.29906250  0.49339764  0.43682894  1
  H  H30  1  0.33785750  0.55281918  0.93917768  1
  H  H31  1  0.51815531  0.12010820  0.23335019  1
  H  H32  1  0.98184469  0.12010820  0.26664981  1
  H  H33  1  0.79906250  0.00660236  0.56317106  1
  H  H34  1  0.48184469  0.87989180  0.76664981  1
  H  H35  1  0.16214250  0.55281918  0.56082232  1
  H  H36  1  0.48184469  0.37989180  0.73335019  1
  H  H37  1  0.12733447  0.63410906  0.96727943  1
  H  H38  1  0.66214250  0.94718082  0.43917768  1
  H  H39  1  0.51815531  0.62010820  0.26664981  1
  C  C40  1  0.48660114  0.84309710  0.25399034  1
  C  C41  1  0.51339886  0.65690290  0.75399034  1
  C  C42  1  0.98660114  0.15690290  0.75399034  1
  C  C43  1  0.48660114  0.34309710  0.24600966  1
  C  C44  1  0.98660114  0.65690290  0.74600966  1
  C  C45  1  0.01339886  0.34309710  0.25399034  1
  C  C46  1  0.01339886  0.84309710  0.24600966  1
  C  C47  1  0.51339886  0.15690290  0.74600966  1
  N  N48  1  0.74399519  0.91397340  0.99069643  1
  N  N49  1  0.74399519  0.41397340  0.50930357  1
  N  N50  1  0.24399519  0.08602660  0.49069643  1
  N  N51  1  0.75600481  0.41397340  0.99069643  1
  N  N52  1  0.24399519  0.58602660  0.00930357  1
  N  N53  1  0.25600481  0.58602660  0.49069643  1
  N  N54  1  0.75600481  0.91397340  0.50930357  1
  N  N55  1  0.25600481  0.08602660  0.00930357  1
  O  O56  1  0.96726438  0.21740528  0.31969935  1
  O  O57  1  0.48742861  0.52912083  0.80998940  1
  O  O58  1  0.53273562  0.21740528  0.18030065  1
  O  O59  1  0.92383502  0.67065779  0.85713673  1
  O  O60  1  0.42383502  0.32934221  0.35713673  1
  O  O61  1  0.03273562  0.78259472  0.68030065  1
  O  O62  1  0.57616498  0.67065779  0.64286327  1
  O  O63  1  0.01257139  0.02912083  0.80998940  1
  O  O64  1  0.07616498  0.82934221  0.35713673  1
  O  O65  1  0.42383502  0.82934221  0.14286327  1
  O  O66  1  0.96726438  0.71740528  0.18030065  1
  O  O67  1  0.51257139  0.97087917  0.30998940  1
  O  O68  1  0.03273562  0.28259472  0.81969935  1
  O  O69  1  0.92383502  0.17065779  0.64286327  1
  O  O70  1  0.46726438  0.78259472  0.81969935  1
  O  O71  1  0.57616498  0.17065779  0.85713673  1
  O  O72  1  0.48742861  0.02912083  0.69001060  1
  O  O73  1  0.46726438  0.28259472  0.68030065  1
  O  O74  1  0.98742861  0.97087917  0.19001060  1
  O  O75  1  0.98742861  0.47087917  0.30998940  1
  O  O76  1  0.51257139  0.47087917  0.19001060  1
  O  O77  1  0.07616498  0.32934221  0.14286327  1
  O  O78  1  0.53273562  0.71740528  0.31969935  1
  O  O79  1  0.01257139  0.52912083  0.69001060  1
