# generated using pymatgen
data_Cs2BeF4
_symmetry_space_group_name_H-M   'P 1'
_cell_length_a   6.11633807
_cell_length_b   8.12663506
_cell_length_c   10.71135045
_cell_angle_alpha   90.00019979
_cell_angle_beta   89.99996504
_cell_angle_gamma   90.00002646
_symmetry_Int_Tables_number   1
_chemical_formula_structural   Cs2BeF4
_chemical_formula_sum   'Cs8 Be4 F16'
_cell_volume   532.41032409
_cell_formula_units_Z   4
loop_
 _symmetry_equiv_pos_site_id
 _symmetry_equiv_pos_as_xyz
  1  'x, y, z'
loop_
 _atom_site_type_symbol
 _atom_site_label
 _atom_site_symmetry_multiplicity
 _atom_site_fract_x
 _atom_site_fract_y
 _atom_site_fract_z
 _atom_site_occupancy
  Cs  Cs0  1  0.74999963  0.01319788  0.68949579  1
  Cs  Cs1  1  0.24999919  0.98679910  0.31050530  1
  Cs  Cs2  1  0.25000029  0.48679535  0.18949049  1
  Cs  Cs3  1  0.75000001  0.51320447  0.81051002  1
  Cs  Cs4  1  0.24999996  0.16221936  0.90619998  1
  Cs  Cs5  1  0.75000004  0.83778104  0.09379974  1
  Cs  Cs6  1  0.75000025  0.33777888  0.40619984  1
  Cs  Cs7  1  0.25000001  0.66222188  0.59379992  1
  Be  Be8  1  0.75000010  0.25965410  0.08394680  1
  Be  Be9  1  0.25000018  0.24034715  0.58394730  1
  Be  Be10  1  0.74999985  0.75965340  0.41605330  1
  Be  Be11  1  0.24999974  0.74034851  0.91605291  1
  F  F12  1  0.25000001  0.04953317  0.59027395  1
  F  F13  1  0.75000002  0.95046656  0.40972671  1
  F  F14  1  0.75000024  0.45046769  0.09027403  1
  F  F15  1  0.25000002  0.54953392  0.90972605  1
  F  F16  1  0.75000014  0.69414864  0.55385610  1
  F  F17  1  0.74999994  0.19414772  0.94614344  1
  F  F18  1  0.25000012  0.30585191  0.44614330  1
  F  F19  1  0.25000022  0.80585162  0.05385638  1
  F  F20  1  0.04185713  0.80902376  0.84972097  1
  F  F21  1  0.54185903  0.19097589  0.15027845  1
  F  F22  1  0.54185824  0.69097572  0.34972149  1
  F  F23  1  0.04185820  0.30902377  0.65027829  1
  F  F24  1  0.45814284  0.80902373  0.84972114  1
  F  F25  1  0.95814108  0.19097611  0.15027844  1
  F  F26  1  0.95814160  0.69097597  0.34972160  1
  F  F27  1  0.45814192  0.30902372  0.65027826  1
