# generated using pymatgen
data_Ba6(NiO3)5
_symmetry_space_group_name_H-M   'P 1'
_cell_length_a   7.16223875
_cell_length_b   7.16221367
_cell_length_c   7.16219675
_cell_angle_alpha   88.31105464
_cell_angle_beta   88.31100229
_cell_angle_gamma   88.31080540
_symmetry_Int_Tables_number   1
_chemical_formula_structural   Ba6(NiO3)5
_chemical_formula_sum   'Ba6 Ni5 O15'
_cell_volume   366.93299287
_cell_formula_units_Z   1
loop_
 _symmetry_equiv_pos_site_id
 _symmetry_equiv_pos_as_xyz
  1  'x, y, z'
loop_
 _atom_site_type_symbol
 _atom_site_label
 _atom_site_symmetry_multiplicity
 _atom_site_fract_x
 _atom_site_fract_y
 _atom_site_fract_z
 _atom_site_occupancy
  Ba  Ba0  1  0.33555335  0.66444867  0.99999752  1
  Ba  Ba1  1  -0.00000451  0.33555661  0.66444465  1
  Ba  Ba2  1  0.66444681  0.99999547  0.33555385  1
  Ba  Ba3  1  0.14871158  0.85127994  0.49999995  1
  Ba  Ba4  1  0.50000122  0.14871218  0.85128713  1
  Ba  Ba5  1  0.85128347  0.50000116  0.14871721  1
  Ni  Ni6  1  0.49998209  0.49998111  0.50000484  1
  Ni  Ni7  1  0.28939454  0.28939419  0.28939579  1
  Ni  Ni8  1  0.71060597  0.71060577  0.71059918  1
  Ni  Ni9  1  0.09489536  0.09489564  0.09489579  1
  Ni  Ni10  1  0.90510261  0.90510479  0.90510393  1
  O  O11  1  0.14330561  0.00000050  0.85669109  1
  O  O12  1  0.85669141  0.14330925  0.00000041  1
  O  O13  1  0.99999970  0.85669318  0.14330712  1
  O  O14  1  0.03702895  0.19317197  0.32829710  1
  O  O15  1  0.32829439  0.03702515  0.19317319  1
  O  O16  1  0.19317398  0.32829463  0.03703083  1
  O  O17  1  0.80682579  0.96297409  0.67170488  1
  O  O18  1  0.67170463  0.80682700  0.96297315  1
  O  O19  1  0.96297261  0.67170527  0.80682735  1
  O  O20  1  0.36306119  0.23568811  0.52875569  1
  O  O21  1  0.52875068  0.36306017  0.23569200  1
  O  O22  1  0.23567928  0.52874897  0.36305604  1
  O  O23  1  0.76434326  0.63695248  0.47124581  1
  O  O24  1  0.47125296  0.76432196  0.63693762  1
  O  O25  1  0.63694207  0.47125072  0.76430790  1
