# generated using pymatgen
data_K2ZrF6
_symmetry_space_group_name_H-M   'P 1'
_cell_length_a   6.54258674
_cell_length_b   6.56742201
_cell_length_c   6.94190688
_cell_angle_alpha   89.73374580
_cell_angle_beta   89.46545555
_cell_angle_gamma   60.12501533
_symmetry_Int_Tables_number   1
_chemical_formula_structural   K2ZrF6
_chemical_formula_sum   'K4 Zr2 F12'
_cell_volume   258.63104078
_cell_formula_units_Z   2
loop_
 _symmetry_equiv_pos_site_id
 _symmetry_equiv_pos_as_xyz
  1  'x, y, z'
loop_
 _atom_site_type_symbol
 _atom_site_label
 _atom_site_symmetry_multiplicity
 _atom_site_fract_x
 _atom_site_fract_y
 _atom_site_fract_z
 _atom_site_occupancy
  K  K0  1  0.63596919  0.68496230  0.50287977  1
  K  K1  1  0.67906851  0.68496230  0.99712023  1
  K  K2  1  0.36403081  0.31503770  0.49712023  1
  K  K3  1  0.32093149  0.31503770  0.00287977  1
  Zr  Zr4  1  0.95328368  0.09343264  0.75000000  1
  Zr  Zr5  1  0.04671632  0.90656736  0.25000000  1
  F  F6  1  0.93864549  0.19904270  0.04530589  1
  F  F7  1  0.86231281  0.19904270  0.45469411  1
  F  F8  1  0.06135451  0.80095730  0.95469411  1
  F  F9  1  0.13768719  0.80095730  0.54530589  1
  F  F10  1  0.61573839  0.38538104  0.77749342  1
  F  F11  1  0.99888058  0.38538104  0.72250658  1
  F  F12  1  0.69281863  0.03081302  0.21362292  1
  F  F13  1  0.27636935  0.03081302  0.28637708  1
  F  F14  1  0.30718137  0.96918698  0.78637708  1
  F  F15  1  0.72363065  0.96918698  0.71362292  1
  F  F16  1  0.00111942  0.61461896  0.27749342  1
  F  F17  1  0.38426161  0.61461896  0.22250658  1
