# generated using pymatgen
data_AlPO4
_symmetry_space_group_name_H-M   'P 1'
_cell_length_a   5.11331364
_cell_length_b   5.11337273
_cell_length_c   11.25435508
_cell_angle_alpha   89.99999931
_cell_angle_beta   89.99999595
_cell_angle_gamma   119.99960777
_symmetry_Int_Tables_number   1
_chemical_formula_structural   AlPO4
_chemical_formula_sum   'Al3 P3 O12'
_cell_volume   254.83721172
_cell_formula_units_Z   3
loop_
 _symmetry_equiv_pos_site_id
 _symmetry_equiv_pos_as_xyz
  1  'x, y, z'
loop_
 _atom_site_type_symbol
 _atom_site_label
 _atom_site_symmetry_multiplicity
 _atom_site_fract_x
 _atom_site_fract_y
 _atom_site_fract_z
 _atom_site_occupancy
  Al  Al0  1  0.00000011  0.49999992  0.83333406  1
  Al  Al1  1  0.50000004  0.00000005  0.49999997  1
  Al  Al2  1  0.50000002  0.50000002  0.16666589  1
  P  P3  1  0.49999991  0.49999990  0.66665930  1
  P  P4  1  0.00000000  0.50000013  0.33334074  1
  P  P5  1  0.49999997  -0.00000004  -0.00000006  1
  O  O6  1  0.19399199  0.77311986  0.41071316  1
  O  O7  1  0.22687237  0.80600593  0.92262416  1
  O  O8  1  0.80600802  0.22688090  0.41071323  1
  O  O9  1  0.22687781  0.42087809  0.74404172  1
  O  O10  1  0.19400066  0.42087808  0.25595838  1
  O  O11  1  0.57913355  0.80600586  0.07737583  1
  O  O12  1  0.77312764  0.19399408  0.92262417  1
  O  O13  1  0.42086643  0.19399409  0.07737583  1
  O  O14  1  0.57912791  0.77311977  0.58928682  1
  O  O15  1  0.80599938  0.57912196  0.25595834  1
  O  O16  1  0.77312213  0.57912121  0.74404167  1
  O  O17  1  0.42087208  0.22688019  0.58928677  1
