# generated using pymatgen
data_AlPO4
_symmetry_space_group_name_H-M   'P 1'
_cell_length_a   4.94223743
_cell_length_b   4.94223640
_cell_length_c   10.95551263
_cell_angle_alpha   89.99971089
_cell_angle_beta   90.00020104
_cell_angle_gamma   119.99994312
_symmetry_Int_Tables_number   1
_chemical_formula_structural   AlPO4
_chemical_formula_sum   'Al3 P3 O12'
_cell_volume   231.74517687
_cell_formula_units_Z   3
loop_
 _symmetry_equiv_pos_site_id
 _symmetry_equiv_pos_as_xyz
  1  'x, y, z'
loop_
 _atom_site_type_symbol
 _atom_site_label
 _atom_site_symmetry_multiplicity
 _atom_site_fract_x
 _atom_site_fract_y
 _atom_site_fract_z
 _atom_site_occupancy
  Al  Al0  1  0.46561636  -0.00000175  0.33333357  1
  Al  Al1  1  -0.00000002  0.46562003  0.66666713  1
  Al  Al2  1  0.53438001  0.53438068  -0.00000034  1
  P  P3  1  0.46571065  -0.00000078  0.83333171  1
  P  P4  1  -0.00000142  0.46570980  0.16666795  1
  P  P5  1  0.53428897  0.53428835  0.50000003  1
  O  O6  1  0.25905198  0.41505734  0.11682049  1
  O  O7  1  0.58494055  0.84398900  0.45015363  1
  O  O8  1  0.15601274  0.74095453  0.78348764  1
  O  O9  1  0.84399000  0.58493992  0.54984563  1
  O  O10  1  0.74095327  0.15601218  0.21651369  1
  O  O11  1  0.41506050  0.25905561  0.88317847  1
  O  O12  1  0.41632297  0.29365134  0.39729535  1
  O  O13  1  0.70634691  0.12267025  0.73062872  1
  O  O14  1  0.87732731  0.58367297  0.06395961  1
  O  O15  1  0.12267129  0.70634498  0.26937060  1
  O  O16  1  0.58367485  0.87732950  0.93604020  1
  O  O17  1  0.29365207  0.41632505  0.60270592  1
