# generated using pymatgen
data_La2TeI2
_symmetry_space_group_name_H-M   'P 1'
_cell_length_a   11.41246371
_cell_length_b   11.41246371
_cell_length_c   11.41246368
_cell_angle_alpha   23.08382111
_cell_angle_beta   23.08382111
_cell_angle_gamma   23.08382186
_symmetry_Int_Tables_number   1
_chemical_formula_structural   La2TeI2
_chemical_formula_sum   'La2 Te1 I2'
_cell_volume   200.56016917
_cell_formula_units_Z   1
loop_
 _symmetry_equiv_pos_site_id
 _symmetry_equiv_pos_as_xyz
  1  'x, y, z'
loop_
 _atom_site_type_symbol
 _atom_site_label
 _atom_site_symmetry_multiplicity
 _atom_site_fract_x
 _atom_site_fract_y
 _atom_site_fract_z
 _atom_site_occupancy
  La  La0  1  0.11391073  0.11391073  0.11391073  1
  La  La1  1  0.88608927  0.88608927  0.88608927  1
  Te  Te2  1  0.50000000  0.50000000  0.50000000  1
  I  I3  1  0.28018112  0.28018112  0.28018112  1
  I  I4  1  0.71981888  0.71981888  0.71981888  1
