# generated using pymatgen
data_BaGaF5
_symmetry_space_group_name_H-M   'P 1'
_cell_length_a   4.93518982
_cell_length_b   5.67882644
_cell_length_c   13.98166509
_cell_angle_alpha   90.00000000
_cell_angle_beta   90.00000000
_cell_angle_gamma   90.00000000
_symmetry_Int_Tables_number   1
_chemical_formula_structural   BaGaF5
_chemical_formula_sum   'Ba4 Ga4 F20'
_cell_volume   391.85135433
_cell_formula_units_Z   4
loop_
 _symmetry_equiv_pos_site_id
 _symmetry_equiv_pos_as_xyz
  1  'x, y, z'
loop_
 _atom_site_type_symbol
 _atom_site_label
 _atom_site_symmetry_multiplicity
 _atom_site_fract_x
 _atom_site_fract_y
 _atom_site_fract_z
 _atom_site_occupancy
  Ba  Ba0  1  0.72003176  0.65951036  0.65855500  1
  Ba  Ba1  1  0.22003176  0.84048964  0.34144500  1
  Ba  Ba2  1  0.27996824  0.15951036  0.84144500  1
  Ba  Ba3  1  0.77996824  0.34048964  0.15855500  1
  Ga  Ga4  1  0.31439981  0.14537029  0.58456306  1
  Ga  Ga5  1  0.81439981  0.35462971  0.41543694  1
  Ga  Ga6  1  0.68560019  0.64537029  0.91543694  1
  Ga  Ga7  1  0.18560019  0.85462971  0.08456306  1
  F  F8  1  0.95913495  0.60424365  0.48516864  1
  F  F9  1  0.45913495  0.89575635  0.51483136  1
  F  F10  1  0.04086505  0.10424365  0.01483136  1
  F  F11  1  0.54086505  0.39575635  0.98516864  1
  F  F12  1  0.66158276  0.57175798  0.32854472  1
  F  F13  1  0.16158276  0.92824202  0.67145528  1
  F  F14  1  0.33841724  0.07175798  0.17145528  1
  F  F15  1  0.83841724  0.42824202  0.82854472  1
  F  F16  1  0.18826153  0.40241618  0.65567000  1
  F  F17  1  0.68826153  0.09758382  0.34433000  1
  F  F18  1  0.81173847  0.90241618  0.84433000  1
  F  F19  1  0.31173847  0.59758382  0.15567000  1
  F  F20  1  0.61802731  0.15288721  0.66879720  1
  F  F21  1  0.11802731  0.34711279  0.33120280  1
  F  F22  1  0.38197269  0.65288721  0.83120280  1
  F  F23  1  0.88197269  0.84711279  0.16879720  1
  F  F24  1  0.50631445  0.36382019  0.50042492  1
  F  F25  1  0.00631445  0.13617981  0.49957508  1
  F  F26  1  0.49368555  0.86382019  0.99957508  1
  F  F27  1  0.99368555  0.63617981  0.00042492  1
