# generated using pymatgen
data_Tm3B5O12
_symmetry_space_group_name_H-M   'P 1'
_cell_length_a   4.57298639
_cell_length_b   12.42592265
_cell_length_c   12.75002464
_cell_angle_alpha   90.00000000
_cell_angle_beta   90.00000000
_cell_angle_gamma   90.00000000
_symmetry_Int_Tables_number   1
_chemical_formula_structural   Tm3B5O12
_chemical_formula_sum   'Tm12 B20 O48'
_cell_volume   724.50198344
_cell_formula_units_Z   4
loop_
 _symmetry_equiv_pos_site_id
 _symmetry_equiv_pos_as_xyz
  1  'x, y, z'
loop_
 _atom_site_type_symbol
 _atom_site_label
 _atom_site_symmetry_multiplicity
 _atom_site_fract_x
 _atom_site_fract_y
 _atom_site_fract_z
 _atom_site_occupancy
  Tm  Tm0  1  0.99891417  0.80663949  0.86459843  1
  Tm  Tm1  1  -0.00000000  0.00000000  0.63226169  1
  Tm  Tm2  1  0.00108583  0.19336051  0.13540157  1
  Tm  Tm3  1  0.99891417  0.80663949  0.13540157  1
  Tm  Tm4  1  -0.00000000  0.50000000  0.13226169  1
  Tm  Tm5  1  0.99891417  0.69336051  0.36459843  1
  Tm  Tm6  1  0.00108583  0.30663949  0.36459843  1
  Tm  Tm7  1  0.00108583  0.19336051  0.86459843  1
  Tm  Tm8  1  -0.00000000  0.00000000  0.36773831  1
  Tm  Tm9  1  -0.00000000  0.50000000  0.86773831  1
  Tm  Tm10  1  0.00108583  0.30663949  0.63540157  1
  Tm  Tm11  1  0.99891417  0.69336051  0.63540157  1
  B  B12  1  0.50000000  0.00000000  0.16170656  1
  B  B13  1  0.53132955  0.15097578  0.29812563  1
  B  B14  1  0.46867045  0.65097578  0.79812563  1
  B  B15  1  0.46867045  0.84902422  0.70187437  1
  B  B16  1  0.45592273  0.37373485  0.50000000  1
  B  B17  1  0.50000000  0.50000000  0.66170656  1
  B  B18  1  0.54407727  0.62626515  0.50000000  1
  B  B19  1  0.54407727  0.87373485  -0.00000000  1
  B  B20  1  0.53821660  0.85049788  0.50000000  1
  B  B21  1  0.53132955  0.34902422  0.20187437  1
  B  B22  1  0.50000000  0.50000000  0.33829344  1
  B  B23  1  0.50000000  0.00000000  0.83829344  1
  B  B24  1  0.46178340  0.35049788  -0.00000000  1
  B  B25  1  0.53821660  0.64950212  -0.00000000  1
  B  B26  1  0.53132955  0.34902422  0.79812563  1
  B  B27  1  0.46867045  0.65097578  0.20187437  1
  B  B28  1  0.46178340  0.14950212  0.50000000  1
  B  B29  1  0.46867045  0.84902422  0.29812563  1
  B  B30  1  0.53132955  0.15097578  0.70187437  1
  B  B31  1  0.45592273  0.12626515  -0.00000000  1
  O  O32  1  0.30895978  0.93552935  0.76670820  1
  O  O33  1  0.69104022  0.06447065  0.76670820  1
  O  O34  1  0.33408456  0.42578741  0.40395182  1
  O  O35  1  0.75935279  0.36011344  0.50000000  1
  O  O36  1  0.24064721  0.63988656  0.50000000  1
  O  O37  1  0.34034529  0.85475669  0.59490371  1
  O  O38  1  0.65965471  0.14524331  0.59490371  1
  O  O39  1  0.69762450  0.76149756  -0.00000000  1
  O  O40  1  0.22004032  0.34826376  0.79586298  1
  O  O41  1  0.65965471  0.35475669  0.09490371  1
  O  O42  1  0.30237550  0.23850244  -0.00000000  1
  O  O43  1  0.30895978  0.56447065  0.26670820  1
  O  O44  1  0.69104022  0.43552935  0.73329180  1
  O  O45  1  0.34034529  0.85475669  0.40509629  1
  O  O46  1  0.77995968  0.65173624  0.20413702  1
  O  O47  1  0.65877150  0.25000000  0.75000000  1
  O  O48  1  0.33408456  0.42578741  0.59604818  1
  O  O49  1  0.30895978  0.56447065  0.73329180  1
  O  O50  1  0.34034529  0.64524331  0.09490371  1
  O  O51  1  0.22004032  0.15173624  0.70413702  1
  O  O52  1  0.65965471  0.35475669  0.90509629  1
  O  O53  1  0.34122850  0.75000000  0.75000000  1
  O  O54  1  0.22004032  0.15173624  0.29586298  1
  O  O55  1  0.66591544  0.92578741  0.09604818  1
  O  O56  1  0.65965471  0.14524331  0.40509629  1
  O  O57  1  0.65877150  0.25000000  0.25000000  1
  O  O58  1  0.66591544  0.57421259  0.40395182  1
  O  O59  1  0.75935279  0.13988656  -0.00000000  1
  O  O60  1  0.69104022  0.06447065  0.23329180  1
  O  O61  1  0.69762450  0.73850244  0.50000000  1
  O  O62  1  0.34034529  0.64524331  0.90509629  1
  O  O63  1  0.24086292  0.06984065  0.50000000  1
  O  O64  1  0.66591544  0.57421259  0.59604818  1
  O  O65  1  0.24064721  0.86011344  -0.00000000  1
  O  O66  1  0.77995968  0.84826376  0.29586298  1
  O  O67  1  0.66591544  0.92578741  0.90395182  1
  O  O68  1  0.77995968  0.65173624  0.79586298  1
  O  O69  1  0.30237550  0.26149756  0.50000000  1
  O  O70  1  0.75913708  0.56984065  -0.00000000  1
  O  O71  1  0.30895978  0.93552935  0.23329180  1
  O  O72  1  0.33408456  0.07421259  0.09604818  1
  O  O73  1  0.75913708  0.93015935  0.50000000  1
  O  O74  1  0.24086292  0.43015935  -0.00000000  1
  O  O75  1  0.34122850  0.75000000  0.25000000  1
  O  O76  1  0.22004032  0.34826376  0.20413702  1
  O  O77  1  0.77995968  0.84826376  0.70413702  1
  O  O78  1  0.69104022  0.43552935  0.26670820  1
  O  O79  1  0.33408456  0.07421259  0.90395182  1
