# generated using pymatgen
data_Th(GeOs)2
_symmetry_space_group_name_H-M   'P 1'
_cell_length_a   4.30823944
_cell_length_b   4.30824021
_cell_length_c   5.82424505
_cell_angle_alpha   111.70660285
_cell_angle_beta   111.70661141
_cell_angle_gamma   89.99998904
_symmetry_Int_Tables_number   1
_chemical_formula_structural   Th(GeOs)2
_chemical_formula_sum   'Th1 Ge2 Os2'
_cell_volume   92.13659390
_cell_formula_units_Z   1
loop_
 _symmetry_equiv_pos_site_id
 _symmetry_equiv_pos_as_xyz
  1  'x, y, z'
loop_
 _atom_site_type_symbol
 _atom_site_label
 _atom_site_symmetry_multiplicity
 _atom_site_fract_x
 _atom_site_fract_y
 _atom_site_fract_z
 _atom_site_occupancy
  Th  Th0  1  -0.00000000  -0.00000000  0.00000000  1
  Ge  Ge1  1  0.36992811  0.36992811  0.73985822  1
  Ge  Ge2  1  0.63007189  0.63007189  0.26014178  1
  Os  Os3  1  0.75000000  0.25000000  0.50000000  1
  Os  Os4  1  0.25000000  0.75000000  0.50000000  1
