# generated using pymatgen
data_GdCo2
_symmetry_space_group_name_H-M   'P 1'
_cell_length_a   5.06322099
_cell_length_b   5.06328095
_cell_length_c   5.06321768
_cell_angle_alpha   59.99941398
_cell_angle_beta   59.99754433
_cell_angle_gamma   59.99948743
_symmetry_Int_Tables_number   1
_chemical_formula_structural   GdCo2
_chemical_formula_sum   'Gd2 Co4'
_cell_volume   91.78228041
_cell_formula_units_Z   2
loop_
 _symmetry_equiv_pos_site_id
 _symmetry_equiv_pos_as_xyz
  1  'x, y, z'
loop_
 _atom_site_type_symbol
 _atom_site_label
 _atom_site_symmetry_multiplicity
 _atom_site_fract_x
 _atom_site_fract_y
 _atom_site_fract_z
 _atom_site_occupancy
  Gd  Gd0  1  0.87500308  0.87499692  0.87500408  1
  Gd  Gd1  1  0.12499692  0.12500308  0.12499592  1
  Co  Co2  1  0.50000000  0.50000000  0.50000000  1
  Co  Co3  1  0.50000000  0.50000000  0.00000000  1
  Co  Co4  1  -0.00000000  0.50000000  0.50000000  1
  Co  Co5  1  0.50000000  0.00000000  0.50000000  1
