# generated using pymatgen
data_TmPO4
_symmetry_space_group_name_H-M   'P 1'
_cell_length_a   5.64689556
_cell_length_b   5.64689609
_cell_length_c   5.64689532
_cell_angle_alpha   106.11681026
_cell_angle_beta   106.11680569
_cell_angle_gamma   116.41100018
_symmetry_Int_Tables_number   1
_chemical_formula_structural   TmPO4
_chemical_formula_sum   'Tm2 P2 O8'
_cell_volume   137.07115451
_cell_formula_units_Z   2
loop_
 _symmetry_equiv_pos_site_id
 _symmetry_equiv_pos_as_xyz
  1  'x, y, z'
loop_
 _atom_site_type_symbol
 _atom_site_label
 _atom_site_symmetry_multiplicity
 _atom_site_fract_x
 _atom_site_fract_y
 _atom_site_fract_z
 _atom_site_occupancy
  Tm  Tm0  1  0.12500000  0.87500000  0.25000000  1
  Tm  Tm1  1  0.87500000  0.12500000  0.75000000  1
  P  P2  1  0.37500000  0.62500000  0.75000000  1
  P  P3  1  0.62500000  0.37500000  0.25000000  1
  O  O4  1  0.78665416  0.36012666  0.07347249  1
  O  O5  1  0.71318067  0.78665416  0.92652651  1
  O  O6  1  0.36012666  0.78665416  0.57347349  1
  O  O7  1  0.78665416  0.71318067  0.42652751  1
  O  O8  1  0.28681933  0.21334584  0.07347249  1
  O  O9  1  0.21334584  0.63987334  0.92652651  1
  O  O10  1  0.21334584  0.28681933  0.57347349  1
  O  O11  1  0.63987334  0.21334584  0.42652751  1
