# generated using pymatgen
data_CsAlF4
_symmetry_space_group_name_H-M   'P 1'
_cell_length_a   9.43621492
_cell_length_b   9.43621492
_cell_length_c   3.70666684
_cell_angle_alpha   90.00000000
_cell_angle_beta   90.00000000
_cell_angle_gamma   119.99999790
_symmetry_Int_Tables_number   1
_chemical_formula_structural   CsAlF4
_chemical_formula_sum   'Cs3 Al3 F12'
_cell_volume   285.83133746
_cell_formula_units_Z   3
loop_
 _symmetry_equiv_pos_site_id
 _symmetry_equiv_pos_as_xyz
  1  'x, y, z'
loop_
 _atom_site_type_symbol
 _atom_site_label
 _atom_site_symmetry_multiplicity
 _atom_site_fract_x
 _atom_site_fract_y
 _atom_site_fract_z
 _atom_site_occupancy
  Cs  Cs0  1  -0.00000000  0.56978805  0.50000000  1
  Cs  Cs1  1  0.43021195  0.43021195  0.50000000  1
  Cs  Cs2  1  0.56978805  -0.00000000  0.50000000  1
  Al  Al3  1  0.21791699  0.00000000  -0.00000000  1
  Al  Al4  1  0.78208301  0.78208301  0.00000000  1
  Al  Al5  1  0.00000000  0.21791699  0.00000000  1
  F  F6  1  0.21010614  0.00000000  0.50000000  1
  F  F7  1  0.00000000  0.21010614  0.50000000  1
  F  F8  1  0.42302090  0.15808699  0.00000000  1
  F  F9  1  -0.00000000  0.84521099  -0.00000000  1
  F  F10  1  0.84521099  -0.00000000  -0.00000000  1
  F  F11  1  0.15808699  0.42302090  0.00000000  1
  F  F12  1  0.73506608  0.57697910  -0.00000000  1
  F  F13  1  0.84191301  0.26493392  0.00000000  1
  F  F14  1  0.78989386  0.78989386  0.50000000  1
  F  F15  1  0.57697910  0.73506608  0.00000000  1
  F  F16  1  0.26493392  0.84191301  0.00000000  1
  F  F17  1  0.15478901  0.15478901  -0.00000000  1
