# generated using pymatgen
data_UPt
_symmetry_space_group_name_H-M   'P 1'
_cell_length_a   3.96953475
_cell_length_b   4.28283076
_cell_length_c   5.72545901
_cell_angle_alpha   90.00000000
_cell_angle_beta   110.28296363
_cell_angle_gamma   90.00000000
_symmetry_Int_Tables_number   1
_chemical_formula_structural   UPt
_chemical_formula_sum   'U2 Pt2'
_cell_volume   91.30193651
_cell_formula_units_Z   2
loop_
 _symmetry_equiv_pos_site_id
 _symmetry_equiv_pos_as_xyz
  1  'x, y, z'
loop_
 _atom_site_type_symbol
 _atom_site_label
 _atom_site_symmetry_multiplicity
 _atom_site_fract_x
 _atom_site_fract_y
 _atom_site_fract_z
 _atom_site_occupancy
  U  U0  1  0.13326354  0.75000000  0.26652507  1
  U  U1  1  0.86673846  0.25000000  0.73347793  1
  Pt  Pt2  1  0.59773629  0.25000000  0.19547258  1
  Pt  Pt3  1  0.40226171  0.75000000  0.80452442  1
