# generated using pymatgen
data_RbClO4
_symmetry_space_group_name_H-M   'P 1'
_cell_length_a   5.31789815
_cell_length_b   5.31636176
_cell_length_c   5.31789755
_cell_angle_alpha   59.99043226
_cell_angle_beta   59.99999255
_cell_angle_gamma   59.99043144
_symmetry_Int_Tables_number   1
_chemical_formula_structural   RbClO4
_chemical_formula_sum   'Rb1 Cl1 O4'
_cell_volume   106.29593612
_cell_formula_units_Z   1
loop_
 _symmetry_equiv_pos_site_id
 _symmetry_equiv_pos_as_xyz
  1  'x, y, z'
loop_
 _atom_site_type_symbol
 _atom_site_label
 _atom_site_symmetry_multiplicity
 _atom_site_fract_x
 _atom_site_fract_y
 _atom_site_fract_z
 _atom_site_occupancy
  Rb  Rb0  1  0.50003226  0.49990422  0.50003226  1
  Cl  Cl1  1  -0.00000899  0.00002796  -0.00000899  1
  O  O2  1  0.66957731  0.11019794  0.11011238  1
  O  O3  1  0.11011238  0.11019794  0.66957731  1
  O  O4  1  0.11011238  0.11019794  0.11011238  1
  O  O5  1  0.11017566  0.66947301  0.11017566  1
