# generated using pymatgen
data_NaUO3
_symmetry_space_group_name_H-M   'P 1'
_cell_length_a   5.74520583
_cell_length_b   5.90574039
_cell_length_c   8.26116171
_cell_angle_alpha   90.00000000
_cell_angle_beta   90.00000000
_cell_angle_gamma   90.00000000
_symmetry_Int_Tables_number   1
_chemical_formula_structural   NaUO3
_chemical_formula_sum   'Na4 U4 O12'
_cell_volume   280.29868989
_cell_formula_units_Z   4
loop_
 _symmetry_equiv_pos_site_id
 _symmetry_equiv_pos_as_xyz
  1  'x, y, z'
loop_
 _atom_site_type_symbol
 _atom_site_label
 _atom_site_symmetry_multiplicity
 _atom_site_fract_x
 _atom_site_fract_y
 _atom_site_fract_z
 _atom_site_occupancy
  Na  Na0  1  0.50765533  0.53606873  0.25000000  1
  Na  Na1  1  0.00765533  0.96393127  0.75000000  1
  Na  Na2  1  0.99234467  0.03606873  0.25000000  1
  Na  Na3  1  0.49234467  0.46393127  0.75000000  1
  U  U4  1  -0.00000000  0.50000000  0.00000000  1
  U  U5  1  0.50000000  0.00000000  0.00000000  1
  U  U6  1  0.50000000  0.00000000  0.50000000  1
  U  U7  1  -0.00000000  0.50000000  0.50000000  1
  O  O8  1  0.69594041  0.30025352  0.44748427  1
  O  O9  1  0.19594041  0.19974648  0.55251573  1
  O  O10  1  0.80405959  0.80025352  0.05251573  1
  O  O11  1  0.30405959  0.69974648  0.94748427  1
  O  O12  1  0.30405959  0.69974648  0.55251573  1
  O  O13  1  0.80405959  0.80025352  0.44748427  1
  O  O14  1  0.19594041  0.19974648  0.94748427  1
  O  O15  1  0.69594041  0.30025352  0.05251573  1
  O  O16  1  0.10051740  0.46280593  0.25000000  1
  O  O17  1  0.60051740  0.03719407  0.75000000  1
  O  O18  1  0.39948260  0.96280593  0.25000000  1
  O  O19  1  0.89948260  0.53719407  0.75000000  1
