# generated using pymatgen
data_Sm4Al23Ni6
_symmetry_space_group_name_H-M   'P 1'
_cell_length_a   8.20693048
_cell_length_b   8.20693048
_cell_length_c   18.21799627
_cell_angle_alpha   67.74009954
_cell_angle_beta   67.74009954
_cell_angle_gamma   28.73620026
_symmetry_Int_Tables_number   1
_chemical_formula_structural   Sm4Al23Ni6
_chemical_formula_sum   'Sm4 Al23 Ni6'
_cell_volume   542.96344779
_cell_formula_units_Z   1
loop_
 _symmetry_equiv_pos_site_id
 _symmetry_equiv_pos_as_xyz
  1  'x, y, z'
loop_
 _atom_site_type_symbol
 _atom_site_label
 _atom_site_symmetry_multiplicity
 _atom_site_fract_x
 _atom_site_fract_y
 _atom_site_fract_z
 _atom_site_occupancy
  Sm  Sm0  1  0.26500490  0.26500490  0.78210270  1
  Sm  Sm1  1  0.57094246  0.57094246  0.59345549  1
  Sm  Sm2  1  0.73499510  0.73499510  0.21789730  1
  Sm  Sm3  1  0.42905754  0.42905754  0.40654451  1
  Al  Al4  1  0.46836463  0.46836463  0.78264482  1
  Al  Al5  1  0.08119146  0.08119146  0.31216676  1
  Al  Al6  1  0.60792157  0.60792157  0.83951697  1
  Al  Al7  1  0.25441214  0.25441214  0.95473899  1
  Al  Al8  1  0.62448661  0.62448661  0.40435501  1
  Al  Al9  1  0.09000718  0.09000718  0.95089706  1
  Al  Al10  1  0.53163537  0.53163537  0.21735518  1
  Al  Al11  1  0.20303015  0.20303015  0.47881274  1
  Al  Al12  1  0.90910733  0.90910733  0.27850590  1
  Al  Al13  1  0.39207843  0.39207843  0.16048303  1
  Al  Al14  1  0.90999282  0.90999282  0.04910294  1
  Al  Al15  1  0.74558786  0.74558786  0.04526101  1
  Al  Al16  1  0.37551339  0.37551339  0.59564499  1
  Al  Al17  1  0.27694609  0.27694609  0.32406221  1
  Al  Al18  1  0.85583270  0.85583270  0.85908328  1
  Al  Al19  1  0.14416730  0.14416730  0.14091672  1
  Al  Al20  1  0.43084148  0.43084148  0.93962266  1
  Al  Al21  1  0.79696985  0.79696985  0.52118726  1
  Al  Al22  1  0.56915852  0.56915852  0.06037734  1
  Al  Al23  1  0.72305391  0.72305391  0.67593779  1
  Al  Al24  1  0.91880854  0.91880854  0.68783324  1
  Al  Al25  1  0.09089267  0.09089267  0.72149410  1
  Al  Al26  1  0.00000000  0.00000000  0.50000000  1
  Ni  Ni27  1  0.99276474  0.99276474  0.13452403  1
  Ni  Ni28  1  0.00723526  0.00723526  0.86547597  1
  Ni  Ni29  1  0.31068756  0.31068756  0.06688347  1
  Ni  Ni30  1  0.68931244  0.68931244  0.93311653  1
  Ni  Ni31  1  0.77321832  0.77321832  0.39823304  1
  Ni  Ni32  1  0.22678168  0.22678168  0.60176696  1
