# generated using pymatgen
data_Cu5Si2S7
_symmetry_space_group_name_H-M   'P 1'
_cell_length_a   8.70391409
_cell_length_b   8.70391409
_cell_length_c   9.54600395
_cell_angle_alpha   87.93744529
_cell_angle_beta   87.93744529
_cell_angle_gamma   42.44134832
_symmetry_Int_Tables_number   1
_chemical_formula_structural   Cu5Si2S7
_chemical_formula_sum   'Cu10 Si4 S14'
_cell_volume   487.66833615
_cell_formula_units_Z   2
loop_
 _symmetry_equiv_pos_site_id
 _symmetry_equiv_pos_as_xyz
  1  'x, y, z'
loop_
 _atom_site_type_symbol
 _atom_site_label
 _atom_site_symmetry_multiplicity
 _atom_site_fract_x
 _atom_site_fract_y
 _atom_site_fract_z
 _atom_site_occupancy
  Cu  Cu0  1  0.78541437  0.45586432  0.29938294  1
  Cu  Cu1  1  0.45586432  0.78541437  0.79938294  1
  Cu  Cu2  1  0.48209384  0.18984381  0.72723285  1
  Cu  Cu3  1  0.18984381  0.48209384  0.22723285  1
  Cu  Cu4  1  0.07890486  0.73431903  0.87495265  1
  Cu  Cu5  1  0.73431903  0.07890486  0.37495265  1
  Cu  Cu6  1  0.22836750  0.87423910  0.16328160  1
  Cu  Cu7  1  0.87423910  0.22836750  0.66328160  1
  Cu  Cu8  1  0.94126499  0.59326837  0.58021141  1
  Cu  Cu9  1  0.59326837  0.94126499  0.08021141  1
  Si  Si10  1  0.36741218  0.02494719  0.43463997  1
  Si  Si11  1  0.02494719  0.36741218  0.93463997  1
  Si  Si12  1  0.64516270  0.31525112  0.00253287  1
  Si  Si13  1  0.31525112  0.64516270  0.50253287  1
  S  S14  1  0.97009538  0.62273601  0.02934691  1
  S  S15  1  0.62273601  0.97009538  0.52934691  1
  S  S16  1  0.56431595  0.20391378  0.16108051  1
  S  S17  1  0.20391378  0.56431595  0.66108051  1
  S  S18  1  0.83411248  0.49528871  0.74883661  1
  S  S19  1  0.49528871  0.83411248  0.24883661  1
  S  S20  1  0.67124205  0.36117433  0.46223340  1
  S  S21  1  0.36117433  0.67124205  0.96223340  1
  S  S22  1  0.25705813  0.91916153  0.58988322  1
  S  S23  1  0.91916153  0.25705813  0.08988322  1
  S  S24  1  0.11288615  0.77560571  0.32065401  1
  S  S25  1  0.77560571  0.11288615  0.82065401  1
  S  S26  1  0.37684958  0.07880483  0.88623205  1
  S  S27  1  0.07880483  0.37684958  0.38623205  1
