# generated using pymatgen
data_Ca2CdSb2
_symmetry_space_group_name_H-M   'P 1'
_cell_length_a   4.63267324
_cell_length_b   7.33703429
_cell_length_c   17.60715877
_cell_angle_alpha   90.00000000
_cell_angle_beta   90.00000000
_cell_angle_gamma   90.00000000
_symmetry_Int_Tables_number   1
_chemical_formula_structural   Ca2CdSb2
_chemical_formula_sum   'Ca8 Cd4 Sb8'
_cell_volume   598.46877771
_cell_formula_units_Z   4
loop_
 _symmetry_equiv_pos_site_id
 _symmetry_equiv_pos_as_xyz
  1  'x, y, z'
loop_
 _atom_site_type_symbol
 _atom_site_label
 _atom_site_symmetry_multiplicity
 _atom_site_fract_x
 _atom_site_fract_y
 _atom_site_fract_z
 _atom_site_occupancy
  Ca  Ca0  1  0.75000000  0.77504595  0.44682710  1
  Ca  Ca1  1  0.25000000  0.72495405  0.94682710  1
  Ca  Ca2  1  0.25000000  0.53456341  0.72704344  1
  Ca  Ca3  1  0.75000000  0.96543659  0.22704344  1
  Ca  Ca4  1  0.75000000  0.27504595  0.05317290  1
  Ca  Ca5  1  0.25000000  0.22495405  0.55317290  1
  Ca  Ca6  1  0.75000000  0.46543659  0.27295656  1
  Ca  Ca7  1  0.25000000  0.03456341  0.77295656  1
  Cd  Cd8  1  0.25000000  0.63625758  0.15135203  1
  Cd  Cd9  1  0.75000000  0.86374242  0.65135203  1
  Cd  Cd10  1  0.75000000  0.36374242  0.84864797  1
  Cd  Cd11  1  0.25000000  0.13625758  0.34864797  1
  Sb  Sb12  1  0.75000000  0.25333629  0.68379047  1
  Sb  Sb13  1  0.25000000  0.74666371  0.31620953  1
  Sb  Sb14  1  0.25000000  0.24666371  0.18379047  1
  Sb  Sb15  1  0.75000000  0.75424147  0.07152962  1
  Sb  Sb16  1  0.75000000  0.75333629  0.81620953  1
  Sb  Sb17  1  0.25000000  0.24575853  0.92847038  1
  Sb  Sb18  1  0.75000000  0.25424147  0.42847038  1
  Sb  Sb19  1  0.25000000  0.74575853  0.57152962  1
