# generated using pymatgen
data_K2CuP2O7
_symmetry_space_group_name_H-M   'P 1'
_cell_length_a   5.25969301
_cell_length_b   9.48592382
_cell_length_c   14.17434422
_cell_angle_alpha   90.00000000
_cell_angle_beta   90.00000000
_cell_angle_gamma   90.00000000
_symmetry_Int_Tables_number   1
_chemical_formula_structural   K2CuP2O7
_chemical_formula_sum   'K8 Cu4 P8 O28'
_cell_volume   707.20122533
_cell_formula_units_Z   4
loop_
 _symmetry_equiv_pos_site_id
 _symmetry_equiv_pos_as_xyz
  1  'x, y, z'
loop_
 _atom_site_type_symbol
 _atom_site_label
 _atom_site_symmetry_multiplicity
 _atom_site_fract_x
 _atom_site_fract_y
 _atom_site_fract_z
 _atom_site_occupancy
  K  K0  1  0.75000000  0.37571886  0.29879689  1
  K  K1  1  0.25000000  0.62428114  0.70120311  1
  K  K2  1  0.75000000  0.62955236  0.09017621  1
  K  K3  1  0.75000000  0.87044764  0.59017621  1
  K  K4  1  0.75000000  0.12428114  0.79879689  1
  K  K5  1  0.25000000  0.87571886  0.20120311  1
  K  K6  1  0.25000000  0.37044764  0.90982379  1
  K  K7  1  0.25000000  0.12955236  0.40982379  1
  Cu  Cu8  1  0.25000000  0.25050565  0.17037846  1
  Cu  Cu9  1  0.25000000  0.24949435  0.67037846  1
  Cu  Cu10  1  0.75000000  0.74949435  0.82962154  1
  Cu  Cu11  1  0.75000000  0.75050565  0.32962154  1
  P  P12  1  0.25000000  0.72391546  0.94745114  1
  P  P13  1  0.25000000  0.77608454  0.44745114  1
  P  P14  1  0.75000000  0.06822888  0.19420378  1
  P  P15  1  0.25000000  0.56822888  0.30579622  1
  P  P16  1  0.75000000  0.22391546  0.55254886  1
  P  P17  1  0.75000000  0.27608454  0.05254886  1
  P  P18  1  0.25000000  0.93177112  0.80579622  1
  P  P19  1  0.75000000  0.43177112  0.69420378  1
  O  O20  1  0.75000000  0.58949064  0.69853796  1
  O  O21  1  0.25000000  0.72037703  0.05217513  1
  O  O22  1  0.51242420  0.15718197  0.59665753  1
  O  O23  1  0.25000000  0.88877036  0.91614032  1
  O  O24  1  0.25000000  0.08949064  0.80146204  1
  O  O25  1  0.99163360  0.13421868  0.23505520  1
  O  O26  1  0.50836640  0.13421868  0.23505520  1
  O  O27  1  0.00836640  0.63421868  0.26494480  1
  O  O28  1  0.98757580  0.34281803  0.09665753  1
  O  O29  1  0.25000000  0.77962297  0.55217513  1
  O  O30  1  0.50836640  0.36578132  0.73505520  1
  O  O31  1  0.75000000  0.91050936  0.19853796  1
  O  O32  1  0.99163360  0.36578132  0.73505520  1
  O  O33  1  0.51242420  0.34281803  0.09665753  1
  O  O34  1  0.75000000  0.22037703  0.44782487  1
  O  O35  1  0.48757580  0.84281803  0.40334247  1
  O  O36  1  0.75000000  0.27962297  0.94782487  1
  O  O37  1  0.25000000  0.41050936  0.30146204  1
  O  O38  1  0.25000000  0.61122964  0.41614032  1
  O  O39  1  0.01242420  0.84281803  0.40334247  1
  O  O40  1  0.98757580  0.15718197  0.59665753  1
  O  O41  1  0.75000000  0.38877036  0.58385968  1
  O  O42  1  0.00836640  0.86578132  0.76494480  1
  O  O43  1  0.48757580  0.65718197  0.90334247  1
  O  O44  1  0.49163360  0.63421868  0.26494480  1
  O  O45  1  0.01242420  0.65718197  0.90334247  1
  O  O46  1  0.49163360  0.86578132  0.76494480  1
  O  O47  1  0.75000000  0.11122964  0.08385968  1
