# generated using pymatgen
data_K3AlAs2
_symmetry_space_group_name_H-M   'P 1'
_cell_length_a   9.05685111
_cell_length_b   12.15994471
_cell_length_c   15.55559625
_cell_angle_alpha   72.55695743
_cell_angle_beta   73.09036428
_cell_angle_gamma   72.01206716
_symmetry_Int_Tables_number   1
_chemical_formula_structural   K3AlAs2
_chemical_formula_sum   'K24 Al8 As16'
_cell_volume   1516.91393693
_cell_formula_units_Z   8
loop_
 _symmetry_equiv_pos_site_id
 _symmetry_equiv_pos_as_xyz
  1  'x, y, z'
loop_
 _atom_site_type_symbol
 _atom_site_label
 _atom_site_symmetry_multiplicity
 _atom_site_fract_x
 _atom_site_fract_y
 _atom_site_fract_z
 _atom_site_occupancy
  K  K0  1  0.34544730  0.91729132  0.69186201  1
  K  K1  1  0.65455270  0.08270868  0.30813799  1
  K  K2  1  0.82176214  0.39919111  0.69286662  1
  K  K3  1  0.17823786  0.60080889  0.30713338  1
  K  K4  1  0.80835278  0.76272697  0.68140533  1
  K  K5  1  0.19164722  0.23727303  0.31859467  1
  K  K6  1  0.21957388  0.75134855  0.61895972  1
  K  K7  1  0.78042612  0.24865145  0.38104028  1
  K  K8  1  0.16255167  0.42453112  0.75568052  1
  K  K9  1  0.83744833  0.57546888  0.24431948  1
  K  K10  1  0.98149865  0.10817998  0.58727285  1
  K  K11  1  0.01850135  0.89182002  0.41272715  1
  K  K12  1  0.53674061  0.08311311  0.74308733  1
  K  K13  1  0.46325939  0.91688689  0.25691267  1
  K  K14  1  0.48541725  0.57381066  0.84357720  1
  K  K15  1  0.51458275  0.42618934  0.15642280  1
  K  K16  1  0.03013642  0.09859306  0.85093010  1
  K  K17  1  0.96986358  0.90140694  0.14906990  1
  K  K18  1  0.51173796  0.37867917  0.58360725  1
  K  K19  1  0.48826204  0.62132083  0.41639275  1
  K  K20  1  0.32123837  0.08364204  0.02377841  1
  K  K21  1  0.67876163  0.91635796  0.97622159  1
  K  K22  1  0.82717096  0.62384331  0.97890078  1
  K  K23  1  0.17282904  0.37615669  0.02109922  1
  Al  Al24  1  0.15659367  0.38832220  0.50945154  1
  Al  Al25  1  0.84340633  0.61167780  0.49054846  1
  Al  Al26  1  0.40724941  0.14311753  0.50839430  1
  Al  Al27  1  0.59275059  0.85688247  0.49160570  1
  Al  Al28  1  0.15028801  0.78128608  0.92398994  1
  Al  Al29  1  0.84971199  0.21871392  0.07601006  1
  Al  Al30  1  0.63906110  0.26757095  0.94622177  1
  Al  Al31  1  0.36093890  0.73242905  0.05377823  1
  As  As32  1  0.21856550  0.21952247  0.64435340  1
  As  As33  1  0.78143450  0.78047753  0.35564660  1
  As  As34  1  0.32568416  0.98695589  0.46180988  1
  As  As35  1  0.67431584  0.01304411  0.53819012  1
  As  As36  1  0.58896160  0.66027452  0.60793131  1
  As  As37  1  0.41103840  0.33972548  0.39206869  1
  As  As38  1  0.09556425  0.59111092  0.54052036  1
  As  As39  1  0.90443575  0.40888908  0.45947964  1
  As  As40  1  0.99117975  0.83316174  0.81621908  1
  As  As41  1  0.00882025  0.16683826  0.18378092  1
  As  As42  1  0.48427077  0.29515825  0.84200572  1
  As  As43  1  0.51572923  0.70484175  0.15799428  1
  As  As44  1  0.84336906  0.36998835  0.93126832  1
  As  As45  1  0.15663094  0.63001165  0.06873168  1
  As  As46  1  0.36573525  0.87392205  0.90723269  1
  As  As47  1  0.63426475  0.12607795  0.09276731  1
