# generated using pymatgen
data_BaCrF6
_symmetry_space_group_name_H-M   'P 1'
_cell_length_a   4.86250699
_cell_length_b   4.86250699
_cell_length_c   4.86250693
_cell_angle_alpha   98.34487656
_cell_angle_beta   98.34487656
_cell_angle_gamma   98.34486112
_symmetry_Int_Tables_number   1
_chemical_formula_structural   BaCrF6
_chemical_formula_sum   'Ba1 Cr1 F6'
_cell_volume   110.91362190
_cell_formula_units_Z   1
loop_
 _symmetry_equiv_pos_site_id
 _symmetry_equiv_pos_as_xyz
  1  'x, y, z'
loop_
 _atom_site_type_symbol
 _atom_site_label
 _atom_site_symmetry_multiplicity
 _atom_site_fract_x
 _atom_site_fract_y
 _atom_site_fract_z
 _atom_site_occupancy
  Ba  Ba0  1  0.50000000  0.50000000  0.50000000  1
  Cr  Cr1  1  -0.00000000  -0.00000000  -0.00000000  1
  F  F2  1  0.73089287  0.73089287  0.07741855  1
  F  F3  1  0.07741855  0.73089287  0.73089287  1
  F  F4  1  0.92258145  0.26910713  0.26910713  1
  F  F5  1  0.26910713  0.26910713  0.92258145  1
  F  F6  1  0.26910713  0.92258145  0.26910713  1
  F  F7  1  0.73089287  0.07741855  0.73089287  1
