# generated using pymatgen
data_Ga2Au7
_symmetry_space_group_name_H-M   'P 1'
_cell_length_a   7.72346330
_cell_length_b   7.72346330
_cell_length_c   8.97398753
_cell_angle_alpha   90.00000000
_cell_angle_beta   90.00000000
_cell_angle_gamma   120.00000436
_symmetry_Int_Tables_number   1
_chemical_formula_structural   Ga2Au7
_chemical_formula_sum   'Ga6 Au21'
_cell_volume   463.59660708
_cell_formula_units_Z   3
loop_
 _symmetry_equiv_pos_site_id
 _symmetry_equiv_pos_as_xyz
  1  'x, y, z'
loop_
 _atom_site_type_symbol
 _atom_site_label
 _atom_site_symmetry_multiplicity
 _atom_site_fract_x
 _atom_site_fract_y
 _atom_site_fract_z
 _atom_site_occupancy
  Ga  Ga0  1  0.33333300  0.66666700  0.19108084  1
  Ga  Ga1  1  0.00000000  0.00000000  0.69598168  1
  Ga  Ga2  1  0.33333300  0.66666700  0.80891916  1
  Ga  Ga3  1  0.66666700  0.33333300  0.80891916  1
  Ga  Ga4  1  0.66666700  0.33333300  0.19108084  1
  Ga  Ga5  1  0.00000000  0.00000000  0.30401832  1
  Au  Au6  1  0.00000000  0.35717549  0.33014736  1
  Au  Au7  1  0.68269746  0.00000000  0.83207105  1
  Au  Au8  1  -0.00000000  0.72845432  0.50000000  1
  Au  Au9  1  0.00000000  0.68269746  0.83207105  1
  Au  Au10  1  0.31730254  0.31730254  0.16792895  1
  Au  Au11  1  0.27154568  0.27154568  0.50000000  1
  Au  Au12  1  0.00000000  0.68269746  0.16792895  1
  Au  Au13  1  0.72845432  -0.00000000  0.50000000  1
  Au  Au14  1  0.35717549  0.00000000  0.33014736  1
  Au  Au15  1  0.64282451  0.64282451  0.66985264  1
  Au  Au16  1  0.36968920  -0.00000000  -0.00000000  1
  Au  Au17  1  0.66666700  0.33333300  0.50000000  1
  Au  Au18  1  0.35717549  0.00000000  0.66985264  1
  Au  Au19  1  0.00000000  0.00000000  -0.00000000  1
  Au  Au20  1  0.31730254  0.31730254  0.83207105  1
  Au  Au21  1  0.63031080  0.63031080  -0.00000000  1
  Au  Au22  1  0.68269746  0.00000000  0.16792895  1
  Au  Au23  1  0.64282451  0.64282451  0.33014736  1
  Au  Au24  1  -0.00000000  0.36968920  -0.00000000  1
  Au  Au25  1  0.33333300  0.66666700  0.50000000  1
  Au  Au26  1  0.00000000  0.35717549  0.66985264  1
