# generated using pymatgen
data_KNaSO4
_symmetry_space_group_name_H-M   'P 1'
_cell_length_a   5.56232263
_cell_length_b   5.56232263
_cell_length_c   7.13992386
_cell_angle_alpha   90.00000000
_cell_angle_beta   90.00000000
_cell_angle_gamma   120.00000531
_symmetry_Int_Tables_number   1
_chemical_formula_structural   KNaSO4
_chemical_formula_sum   'K2 Na2 S2 O8'
_cell_volume   191.30950119
_cell_formula_units_Z   2
loop_
 _symmetry_equiv_pos_site_id
 _symmetry_equiv_pos_as_xyz
  1  'x, y, z'
loop_
 _atom_site_type_symbol
 _atom_site_label
 _atom_site_symmetry_multiplicity
 _atom_site_fract_x
 _atom_site_fract_y
 _atom_site_fract_z
 _atom_site_occupancy
  K  K0  1  0.33333300  0.66666700  0.33545725  1
  K  K1  1  0.00000000  0.00000000  0.00241582  1
  Na  Na2  1  0.00000000  0.00000000  0.50151782  1
  Na  Na3  1  0.66666700  0.33333300  0.70485474  1
  S  S4  1  0.33333300  0.66666700  0.77460269  1
  S  S5  1  0.66666700  0.33333300  0.22814876  1
  O  O6  1  0.18904464  0.81095536  0.70091046  1
  O  O7  1  0.81077386  0.18922614  0.30071249  1
  O  O8  1  0.33333300  0.66666700  0.97823121  1
  O  O9  1  0.81077386  0.62154871  0.30071249  1
  O  O10  1  0.18904464  0.37808928  0.70091046  1
  O  O11  1  0.66666700  0.33333300  0.02290287  1
  O  O12  1  0.37845129  0.18922614  0.30071249  1
  O  O13  1  0.62191072  0.81095536  0.70091046  1
