# generated using pymatgen
data_V2Ga8Cu3
_symmetry_space_group_name_H-M   'P 1'
_cell_length_a   10.13039178
_cell_length_b   10.13039178
_cell_length_c   10.13039178
_cell_angle_alpha   109.47122063
_cell_angle_beta   109.47122063
_cell_angle_gamma   109.47122063
_symmetry_Int_Tables_number   1
_chemical_formula_structural   V2Ga8Cu3
_chemical_formula_sum   'V8 Ga32 Cu12'
_cell_volume   800.30740148
_cell_formula_units_Z   4
loop_
 _symmetry_equiv_pos_site_id
 _symmetry_equiv_pos_as_xyz
  1  'x, y, z'
loop_
 _atom_site_type_symbol
 _atom_site_label
 _atom_site_symmetry_multiplicity
 _atom_site_fract_x
 _atom_site_fract_y
 _atom_site_fract_z
 _atom_site_occupancy
  V  V0  1  0.02419244  0.02419244  0.02419244  1
  V  V1  1  0.97580756  0.50000000  -0.00000000  1
  V  V2  1  0.00000000  0.47580756  0.50000000  1
  V  V3  1  0.52419244  0.52419244  0.52419244  1
  V  V4  1  -0.00000000  0.97580756  0.50000000  1
  V  V5  1  0.50000000  -0.00000000  0.47580756  1
  V  V6  1  0.47580756  0.50000000  0.00000000  1
  V  V7  1  0.50000000  0.00000000  0.97580756  1
  Ga  Ga8  1  0.50967312  0.26386507  0.00590621  1
  Ga  Ga9  1  0.72649506  0.50000000  -0.00000000  1
  Ga  Ga10  1  0.49032688  0.25419195  0.49623309  1
  Ga  Ga11  1  0.50590621  0.76386507  0.00967312  1
  Ga  Ga12  1  0.99409379  0.00376691  0.25795886  1
  Ga  Ga13  1  0.00376691  0.25795886  0.99409379  1
  Ga  Ga14  1  0.24580805  0.73613493  0.24204114  1
  Ga  Ga15  1  0.00000000  0.72649506  0.50000000  1
  Ga  Ga16  1  0.74580805  0.74204114  0.23613493  1
  Ga  Ga17  1  0.50376691  0.49409379  0.75795886  1
  Ga  Ga18  1  0.76386507  0.00967312  0.50590621  1
  Ga  Ga19  1  0.50000000  -0.00000000  0.22649506  1
  Ga  Ga20  1  0.00967312  0.50590621  0.76386507  1
  Ga  Ga21  1  0.73613493  0.24204114  0.24580805  1
  Ga  Ga22  1  0.22649506  0.50000000  0.00000000  1
  Ga  Ga23  1  0.26386507  0.00590621  0.50967312  1
  Ga  Ga24  1  0.50000000  0.00000000  0.72649506  1
  Ga  Ga25  1  0.75419195  0.99032688  0.99623309  1
  Ga  Ga26  1  0.99623309  0.75419195  0.99032688  1
  Ga  Ga27  1  0.49623309  0.49032688  0.25419195  1
  Ga  Ga28  1  0.25419195  0.49623309  0.49032688  1
  Ga  Ga29  1  0.75795886  0.50376691  0.49409379  1
  Ga  Ga30  1  0.77350394  0.77350394  0.77350494  1
  Ga  Ga31  1  0.24204114  0.24580805  0.73613493  1
  Ga  Ga32  1  0.00590621  0.50967312  0.26386507  1
  Ga  Ga33  1  0.74204114  0.23613493  0.74580805  1
  Ga  Ga34  1  0.27350394  0.27350394  0.27350494  1
  Ga  Ga35  1  0.00000000  0.22649506  0.50000000  1
  Ga  Ga36  1  0.99032688  0.99623309  0.75419195  1
  Ga  Ga37  1  0.25795886  0.99409379  0.00376691  1
  Ga  Ga38  1  0.49409379  0.75795886  0.50376691  1
  Ga  Ga39  1  0.23613493  0.74580805  0.74204114  1
  Cu  Cu40  1  0.74479478  0.75000000  0.49479478  1
  Cu  Cu41  1  0.75000000  0.25520522  0.50520522  1
  Cu  Cu42  1  0.75520522  0.25000000  0.00520522  1
  Cu  Cu43  1  0.75000000  0.49479478  0.74479478  1
  Cu  Cu44  1  0.00520522  0.75520522  0.25000000  1
  Cu  Cu45  1  0.49479478  0.74479478  0.75000000  1
  Cu  Cu46  1  0.25000000  0.00520522  0.75520522  1
  Cu  Cu47  1  0.25000000  0.24479478  0.99479478  1
  Cu  Cu48  1  0.24479478  0.99479478  0.25000000  1
  Cu  Cu49  1  0.25520522  0.50520522  0.75000000  1
  Cu  Cu50  1  0.99479478  0.25000000  0.24479478  1
  Cu  Cu51  1  0.50520522  0.75000000  0.25520522  1
