# generated using pymatgen
data_Ga8Cu3W2
_symmetry_space_group_name_H-M   'P 1'
_cell_length_a   10.31615892
_cell_length_b   10.31615892
_cell_length_c   10.31615892
_cell_angle_alpha   109.47122063
_cell_angle_beta   109.47122063
_cell_angle_gamma   109.47122063
_symmetry_Int_Tables_number   1
_chemical_formula_structural   Ga8Cu3W2
_chemical_formula_sum   'Ga32 Cu12 W8'
_cell_volume   845.14685713
_cell_formula_units_Z   4
loop_
 _symmetry_equiv_pos_site_id
 _symmetry_equiv_pos_as_xyz
  1  'x, y, z'
loop_
 _atom_site_type_symbol
 _atom_site_label
 _atom_site_symmetry_multiplicity
 _atom_site_fract_x
 _atom_site_fract_y
 _atom_site_fract_z
 _atom_site_occupancy
  Ga  Ga0  1  -0.00000000  0.20871604  0.50000000  1
  Ga  Ga1  1  0.01264421  0.00008686  0.76869263  1
  Ga  Ga2  1  0.24395157  0.73130737  0.73139422  1
  Ga  Ga3  1  0.73139422  0.24395157  0.73130737  1
  Ga  Ga4  1  0.48744265  0.75604843  0.98735579  1
  Ga  Ga5  1  0.23139422  0.23130737  0.74395157  1
  Ga  Ga6  1  0.98744265  0.48735579  0.25604843  1
  Ga  Ga7  1  0.74395157  0.23139422  0.23130737  1
  Ga  Ga8  1  0.50000000  0.00000000  0.70871604  1
  Ga  Ga9  1  0.98735579  0.48744265  0.75604843  1
  Ga  Ga10  1  0.70871604  0.50000000  -0.00000000  1
  Ga  Ga11  1  0.49991314  0.51255735  0.76860578  1
  Ga  Ga12  1  0.99991314  0.26860578  0.01255735  1
  Ga  Ga13  1  0.51255735  0.76860578  0.49991314  1
  Ga  Ga14  1  0.00008686  0.76869263  0.01264421  1
  Ga  Ga15  1  0.48735579  0.25604843  0.98744265  1
  Ga  Ga16  1  0.01255735  0.99991314  0.26860578  1
  Ga  Ga17  1  0.51264421  0.26869263  0.50008686  1
  Ga  Ga18  1  0.23130737  0.74395157  0.23139422  1
  Ga  Ga19  1  0.73130737  0.73139422  0.24395157  1
  Ga  Ga20  1  0.76860578  0.49991314  0.51255735  1
  Ga  Ga21  1  -0.00000000  0.70871604  0.50000000  1
  Ga  Ga22  1  0.76869263  0.01264421  0.00008686  1
  Ga  Ga23  1  0.26869263  0.50008686  0.51264421  1
  Ga  Ga24  1  0.29128396  0.29128396  0.29128396  1
  Ga  Ga25  1  0.79128396  0.79128396  0.79128396  1
  Ga  Ga26  1  0.26860578  0.01255735  0.99991314  1
  Ga  Ga27  1  0.50000000  0.00000000  0.20871604  1
  Ga  Ga28  1  0.25604843  0.98744265  0.48735579  1
  Ga  Ga29  1  0.75604843  0.98735579  0.48744265  1
  Ga  Ga30  1  0.20871604  0.50000000  -0.00000000  1
  Ga  Ga31  1  0.50008686  0.51264421  0.26869263  1
  Cu  Cu32  1  0.22929303  0.47929303  0.75000000  1
  Cu  Cu33  1  0.75000000  0.52070697  0.77070697  1
  Cu  Cu34  1  0.25000000  0.97929303  0.72929303  1
  Cu  Cu35  1  0.75000000  0.22929303  0.47929303  1
  Cu  Cu36  1  0.97929303  0.72929303  0.25000000  1
  Cu  Cu37  1  0.47929303  0.75000000  0.22929303  1
  Cu  Cu38  1  0.77070697  0.75000000  0.52070697  1
  Cu  Cu39  1  0.02070697  0.25000000  0.27070697  1
  Cu  Cu40  1  0.72929303  0.25000000  0.97929303  1
  Cu  Cu41  1  0.52070697  0.77070697  0.75000000  1
  Cu  Cu42  1  0.25000000  0.27070697  0.02070697  1
  Cu  Cu43  1  0.27070697  0.02070697  0.25000000  1
  W  W44  1  0.50000000  -0.00000000  0.45714797  1
  W  W45  1  0.54285203  0.54285203  0.54285203  1
  W  W46  1  0.95714797  0.50000000  0.00000000  1
  W  W47  1  -0.00000000  0.95714797  0.50000000  1
  W  W48  1  0.45714797  0.50000000  -0.00000000  1
  W  W49  1  0.50000000  0.00000000  0.95714797  1
  W  W50  1  0.04285203  0.04285203  0.04285203  1
  W  W51  1  0.00000000  0.45714797  0.50000000  1
