# generated using pymatgen
data_NbS2
_symmetry_space_group_name_H-M   'P 1'
_cell_length_a   3.37151008
_cell_length_b   3.37150919
_cell_length_c   22.07122519
_cell_angle_alpha   91.57291054
_cell_angle_beta   91.57291183
_cell_angle_gamma   119.97778666
_symmetry_Int_Tables_number   1
_chemical_formula_structural   NbS2
_chemical_formula_sum   'Nb1 S2'
_cell_volume   216.99417025
_cell_formula_units_Z   1
loop_
 _symmetry_equiv_pos_site_id
 _symmetry_equiv_pos_as_xyz
  1  'x, y, z'
loop_
 _atom_site_type_symbol
 _atom_site_label
 _atom_site_symmetry_multiplicity
 _atom_site_fract_x
 _atom_site_fract_y
 _atom_site_fract_z
 _atom_site_occupancy
  Nb  Nb0  1  0.07024563  0.92975437  0.00000000  1
  S  S1  1  0.71131473  0.23776037  0.92913780  1
  S  S2  1  0.76223963  0.28868527  0.07086220  1
