# generated using pymatgen
data_NaCaAlF6
_symmetry_space_group_name_H-M   'P 1'
_cell_length_a   5.16649501
_cell_length_b   8.59935544
_cell_length_c   20.26370726
_cell_angle_alpha   91.92023986
_cell_angle_beta   90.00000000
_cell_angle_gamma   90.00000000
_symmetry_Int_Tables_number   1
_chemical_formula_structural   NaCaAlF6
_chemical_formula_sum   'Na8 Ca8 Al8 F48'
_cell_volume   899.78110087
_cell_formula_units_Z   8
loop_
 _symmetry_equiv_pos_site_id
 _symmetry_equiv_pos_as_xyz
  1  'x, y, z'
loop_
 _atom_site_type_symbol
 _atom_site_label
 _atom_site_symmetry_multiplicity
 _atom_site_fract_x
 _atom_site_fract_y
 _atom_site_fract_z
 _atom_site_occupancy
  Na  Na0  1  0.75901338  0.02586862  0.31825809  1
  Na  Na1  1  0.25901338  0.97413138  0.18174191  1
  Na  Na2  1  0.24098662  0.97413138  0.68174191  1
  Na  Na3  1  0.20506880  0.95579865  0.93703156  1
  Na  Na4  1  0.29493120  0.95579865  0.43703156  1
  Na  Na5  1  0.74098662  0.02586862  0.81825809  1
  Na  Na6  1  0.70506880  0.04420135  0.56296844  1
  Na  Na7  1  0.79493120  0.04420135  0.06296844  1
  Ca  Ca8  1  0.75987778  0.35989667  0.68938093  1
  Ca  Ca9  1  0.81516123  0.36344836  0.93632018  1
  Ca  Ca10  1  0.18483877  0.63655164  0.06367982  1
  Ca  Ca11  1  0.24012222  0.64010333  0.31061907  1
  Ca  Ca12  1  0.74012222  0.35989667  0.18938093  1
  Ca  Ca13  1  0.31516123  0.63655164  0.56367982  1
  Ca  Ca14  1  0.25987778  0.64010333  0.81061907  1
  Ca  Ca15  1  0.68483877  0.36344836  0.43632018  1
  Al  Al16  1  0.75214425  0.74615251  0.18007862  1
  Al  Al17  1  0.25214425  0.25384749  0.31992138  1
  Al  Al18  1  0.18825335  0.25380066  0.57276952  1
  Al  Al19  1  0.68825335  0.74619934  0.92723048  1
  Al  Al20  1  0.81174665  0.74619934  0.42723048  1
  Al  Al21  1  0.74785575  0.74615251  0.68007862  1
  Al  Al22  1  0.31174665  0.25380066  0.07276952  1
  Al  Al23  1  0.24785575  0.25384749  0.81992138  1
  F  F24  1  0.52237016  0.23837057  0.87291438  1
  F  F25  1  0.45613378  0.74833828  0.72812719  1
  F  F26  1  0.90716379  0.60794826  0.73451669  1
  F  F27  1  0.59884146  0.26544653  0.02183186  1
  F  F28  1  0.72052136  0.92259794  0.46786682  1
  F  F29  1  0.86407315  0.90811374  0.72646233  1
  F  F30  1  0.13567953  0.37539410  0.01690297  1
  F  F31  1  0.13592685  0.09188626  0.27353767  1
  F  F32  1  0.50801578  0.15546743  0.13279638  1
  F  F33  1  0.05607575  0.14993776  0.88099351  1
  F  F34  1  0.09884146  0.73455347  0.47816814  1
  F  F35  1  0.97762984  0.23837057  0.37291438  1
  F  F36  1  0.90115854  0.26544653  0.52183186  1
  F  F37  1  0.04386622  0.74833828  0.22812719  1
  F  F38  1  0.63592685  0.90811374  0.22646233  1
  F  F39  1  0.10169228  0.43343859  0.61646251  1
  F  F40  1  0.53354605  0.76984170  0.37405964  1
  F  F41  1  0.46645395  0.23015830  0.62594036  1
  F  F42  1  0.02237016  0.76162943  0.62708562  1
  F  F43  1  0.63567953  0.62460590  0.48309703  1
  F  F44  1  0.99198422  0.15546743  0.63279638  1
  F  F45  1  0.40115854  0.73455347  0.97816814  1
  F  F46  1  0.87238560  0.57120828  0.13566309  1
  F  F47  1  0.36432047  0.37539410  0.51690297  1
  F  F48  1  0.86432047  0.62460590  0.98309703  1
  F  F49  1  0.55607575  0.85006324  0.61900649  1
  F  F50  1  0.47762984  0.76162943  0.12708562  1
  F  F51  1  0.03354605  0.23015830  0.12594036  1
  F  F52  1  0.62761440  0.57120828  0.63566309  1
  F  F53  1  0.89830772  0.56656141  0.38353749  1
  F  F54  1  0.12761440  0.42879172  0.86433691  1
  F  F55  1  0.60169228  0.56656141  0.88353749  1
  F  F56  1  0.40716379  0.39205174  0.76548331  1
  F  F57  1  0.22052136  0.07740206  0.03213318  1
  F  F58  1  0.95613378  0.25166172  0.77187281  1
  F  F59  1  0.54386622  0.25166172  0.27187281  1
  F  F60  1  0.37238560  0.42879172  0.36433691  1
  F  F61  1  0.94392425  0.85006324  0.11900649  1
  F  F62  1  0.36407315  0.09188626  0.77353767  1
  F  F63  1  0.27947864  0.07740206  0.53213318  1
  F  F64  1  0.39830772  0.43343859  0.11646251  1
  F  F65  1  0.59283621  0.60794826  0.23451669  1
  F  F66  1  0.96645395  0.76984170  0.87405964  1
  F  F67  1  0.77947864  0.92259794  0.96786682  1
  F  F68  1  0.49198422  0.84453257  0.86720362  1
  F  F69  1  0.09283621  0.39205174  0.26548331  1
  F  F70  1  0.44392425  0.14993776  0.38099351  1
  F  F71  1  0.00801578  0.84453257  0.36720362  1
