# generated using pymatgen
data_BaB2F8
_symmetry_space_group_name_H-M   'P 1'
_cell_length_a   4.71604252
_cell_length_b   5.01812449
_cell_length_c   6.73946500
_cell_angle_alpha   111.88068658
_cell_angle_beta   109.88479071
_cell_angle_gamma   89.98877831
_symmetry_Int_Tables_number   1
_chemical_formula_structural   BaB2F8
_chemical_formula_sum   'Ba1 B2 F8'
_cell_volume   137.70857546
_cell_formula_units_Z   1
loop_
 _symmetry_equiv_pos_site_id
 _symmetry_equiv_pos_as_xyz
  1  'x, y, z'
loop_
 _atom_site_type_symbol
 _atom_site_label
 _atom_site_symmetry_multiplicity
 _atom_site_fract_x
 _atom_site_fract_y
 _atom_site_fract_z
 _atom_site_occupancy
  Ba  Ba0  1  0.00000000  -0.00000000  0.00000000  1
  B  B1  1  0.28651505  0.34784892  0.69557208  1
  B  B2  1  0.71348495  0.65215108  0.30442792  1
  F  F3  1  0.46531949  0.61475222  0.76919341  1
  F  F4  1  0.85832035  0.77104594  0.54227559  1
  F  F5  1  0.46556517  0.15466428  0.76895250  1
  F  F6  1  0.06532431  0.40052674  0.80121546  1
  F  F7  1  0.53443483  0.84533572  0.23104750  1
  F  F8  1  0.53468051  0.38524778  0.23080659  1
  F  F9  1  0.14167865  0.22895406  0.45772441  1
  F  F10  1  0.93467569  0.59947326  0.19878354  1
