# generated using pymatgen
data_TbInPt
_symmetry_space_group_name_H-M   'P 1'
_cell_length_a   7.64541455
_cell_length_b   7.64541536
_cell_length_c   3.86559646
_cell_angle_alpha   90.00000000
_cell_angle_beta   90.00000000
_cell_angle_gamma   120.00000860
_symmetry_Int_Tables_number   1
_chemical_formula_structural   TbInPt
_chemical_formula_sum   'Tb3 In3 Pt3'
_cell_volume   195.68125830
_cell_formula_units_Z   3
loop_
 _symmetry_equiv_pos_site_id
 _symmetry_equiv_pos_as_xyz
  1  'x, y, z'
loop_
 _atom_site_type_symbol
 _atom_site_label
 _atom_site_symmetry_multiplicity
 _atom_site_fract_x
 _atom_site_fract_y
 _atom_site_fract_z
 _atom_site_occupancy
  Tb  Tb0  1  0.40634671  1.00000000  0.00000000  1
  Tb  Tb1  1  1.00000000  0.40634671  0.00000000  1
  Tb  Tb2  1  0.59365329  0.59365329  -0.00000000  1
  In  In3  1  0.26016571  0.26016571  0.50000000  1
  In  In4  1  0.00000000  0.73983429  0.50000000  1
  In  In5  1  0.73983429  0.00000000  0.50000000  1
  Pt  Pt6  1  0.00000000  -0.00000000  -0.00000000  1
  Pt  Pt7  1  0.66666700  0.33333300  0.50000000  1
  Pt  Pt8  1  0.33333300  0.66666700  0.50000000  1
