# generated using pymatgen
data_Ba2CaCr2CuF14
_symmetry_space_group_name_H-M   'P 1'
_cell_length_a   7.39438537
_cell_length_b   7.39438537
_cell_length_c   14.72504377
_cell_angle_alpha   88.56628322
_cell_angle_beta   88.56628322
_cell_angle_gamma   42.27118181
_symmetry_Int_Tables_number   1
_chemical_formula_structural   Ba2CaCr2CuF14
_chemical_formula_sum   'Ba4 Ca2 Cr4 Cu2 F28'
_cell_volume   541.36154422
_cell_formula_units_Z   2
loop_
 _symmetry_equiv_pos_site_id
 _symmetry_equiv_pos_as_xyz
  1  'x, y, z'
loop_
 _atom_site_type_symbol
 _atom_site_label
 _atom_site_symmetry_multiplicity
 _atom_site_fract_x
 _atom_site_fract_y
 _atom_site_fract_z
 _atom_site_occupancy
  Ba  Ba0  1  0.74809299  0.87025455  0.61995166  1
  Ba  Ba1  1  0.87025455  0.74809299  0.11995166  1
  Ba  Ba2  1  0.25190701  0.12974545  0.38004834  1
  Ba  Ba3  1  0.12974545  0.25190701  0.88004834  1
  Ca  Ca4  1  0.57763995  0.42236005  0.25000000  1
  Ca  Ca5  1  0.42236005  0.57763995  0.75000000  1
  Cr  Cr6  1  0.89801337  0.86020211  0.37562723  1
  Cr  Cr7  1  0.86020211  0.89801337  0.87562723  1
  Cr  Cr8  1  0.10198663  0.13979789  0.62437277  1
  Cr  Cr9  1  0.13979789  0.10198663  0.12437277  1
  Cu  Cu10  1  0.50000000  0.50000000  0.00000000  1
  Cu  Cu11  1  0.50000000  0.50000000  0.50000000  1
  F  F12  1  0.32949082  0.17563565  0.09193256  1
  F  F13  1  0.67050918  0.82436435  0.90806744  1
  F  F14  1  0.06035697  0.92146850  0.65589560  1
  F  F15  1  0.07853150  0.93964303  0.84410440  1
  F  F16  1  0.12412596  0.70453995  0.48094893  1
  F  F17  1  0.82689735  0.42124688  0.70632913  1
  F  F18  1  0.57875312  0.17310265  0.79367087  1
  F  F19  1  0.17563565  0.32949082  0.59193256  1
  F  F20  1  0.92146850  0.06035697  0.15589560  1
  F  F21  1  0.59908102  0.13744765  0.45353183  1
  F  F22  1  0.13744765  0.59908102  0.95353183  1
  F  F23  1  0.50792261  0.38343438  0.61554255  1
  F  F24  1  0.93964303  0.07853150  0.34410440  1
  F  F25  1  0.42124688  0.82689735  0.20632913  1
  F  F26  1  0.96200620  0.35643064  0.22223009  1
  F  F27  1  0.82436435  0.67050918  0.40806744  1
  F  F28  1  0.70453995  0.12412596  0.98094893  1
  F  F29  1  0.86255235  0.40091898  0.04646817  1
  F  F30  1  0.64356936  0.03799380  0.27776991  1
  F  F31  1  0.35643064  0.96200620  0.72223009  1
  F  F32  1  0.61656562  0.49207739  0.88445745  1
  F  F33  1  0.38343438  0.50792261  0.11554255  1
  F  F34  1  0.40091898  0.86255235  0.54646817  1
  F  F35  1  0.87587404  0.29546005  0.51905107  1
  F  F36  1  0.29546005  0.87587404  0.01905107  1
  F  F37  1  0.03799380  0.64356936  0.77776991  1
  F  F38  1  0.17310265  0.57875312  0.29367087  1
  F  F39  1  0.49207739  0.61656562  0.38445745  1
