# generated using pymatgen
data_Pr3OsI3
_symmetry_space_group_name_H-M   'P 1'
_cell_length_a   4.36026069
_cell_length_b   9.33648757
_cell_length_c   12.67142561
_cell_angle_alpha   92.94678295
_cell_angle_beta   90.00000000
_cell_angle_gamma   90.00000000
_symmetry_Int_Tables_number   1
_chemical_formula_structural   Pr3OsI3
_chemical_formula_sum   'Pr6 Os2 I6'
_cell_volume   515.16555280
_cell_formula_units_Z   2
loop_
 _symmetry_equiv_pos_site_id
 _symmetry_equiv_pos_as_xyz
  1  'x, y, z'
loop_
 _atom_site_type_symbol
 _atom_site_label
 _atom_site_symmetry_multiplicity
 _atom_site_fract_x
 _atom_site_fract_y
 _atom_site_fract_z
 _atom_site_occupancy
  Pr  Pr0  1  0.75000000  0.30808326  0.11857601  1
  Pr  Pr1  1  0.25000000  0.11673028  0.33146667  1
  Pr  Pr2  1  0.25000000  0.69191674  0.88142399  1
  Pr  Pr3  1  0.25000000  0.09717713  0.88975765  1
  Pr  Pr4  1  0.75000000  0.88326972  0.66853333  1
  Pr  Pr5  1  0.75000000  0.90282287  0.11024235  1
  Os  Os6  1  0.25000000  0.10930917  0.12029303  1
  Os  Os7  1  0.75000000  0.89069083  0.87970697  1
  I  I8  1  0.25000000  0.60387163  0.13316399  1
  I  I9  1  0.75000000  0.86655587  0.38258945  1
  I  I10  1  0.75000000  0.39612837  0.86683601  1
  I  I11  1  0.25000000  0.63147801  0.62378145  1
  I  I12  1  0.75000000  0.36852199  0.37621855  1
  I  I13  1  0.25000000  0.13344413  0.61741055  1
