# generated using pymatgen
data_Na2UF6
_symmetry_space_group_name_H-M   'P 1'
_cell_length_a   6.52661959
_cell_length_b   6.52676207
_cell_length_c   6.52680232
_cell_angle_alpha   144.08088922
_cell_angle_beta   130.39740533
_cell_angle_gamma   62.74683935
_symmetry_Int_Tables_number   1
_chemical_formula_structural   Na2UF6
_chemical_formula_sum   'Na2 U1 F6'
_cell_volume   122.81182258
_cell_formula_units_Z   1
loop_
 _symmetry_equiv_pos_site_id
 _symmetry_equiv_pos_as_xyz
  1  'x, y, z'
loop_
 _atom_site_type_symbol
 _atom_site_label
 _atom_site_symmetry_multiplicity
 _atom_site_fract_x
 _atom_site_fract_y
 _atom_site_fract_z
 _atom_site_occupancy
  Na  Na0  1  0.33012525  0.33013003  0.00003035  1
  Na  Na1  1  0.66987476  0.66986994  -0.00003039  1
  U  U2  1  -0.00000003  -0.00000001  -0.00000002  1
  F  F3  1  0.59682456  0.84433685  0.75247540  1
  F  F4  1  0.40317540  0.15566314  0.24752457  1
  F  F5  1  0.90816015  0.15565011  0.75249671  1
  F  F6  1  0.23059475  0.50001529  0.73060767  1
  F  F7  1  0.09183986  0.84434983  0.24750328  1
  F  F8  1  0.76940529  0.49998482  0.26939243  1
