# generated using pymatgen
data_Mn2SiS4
_symmetry_space_group_name_H-M   'P 1'
_cell_length_a   5.93586906
_cell_length_b   7.42623382
_cell_length_c   12.69735080
_cell_angle_alpha   90.00000000
_cell_angle_beta   90.00000000
_cell_angle_gamma   90.00000000
_symmetry_Int_Tables_number   1
_chemical_formula_structural   Mn2SiS4
_chemical_formula_sum   'Mn8 Si4 S16'
_cell_volume   559.71384508
_cell_formula_units_Z   4
loop_
 _symmetry_equiv_pos_site_id
 _symmetry_equiv_pos_as_xyz
  1  'x, y, z'
loop_
 _atom_site_type_symbol
 _atom_site_label
 _atom_site_symmetry_multiplicity
 _atom_site_fract_x
 _atom_site_fract_y
 _atom_site_fract_z
 _atom_site_occupancy
  Mn  Mn0  1  0.00834705  0.75000000  0.73115713  1
  Mn  Mn1  1  0.50834705  0.25000000  0.76884287  1
  Mn  Mn2  1  0.99165295  0.25000000  0.26884287  1
  Mn  Mn3  1  0.49165295  0.75000000  0.23115713  1
  Mn  Mn4  1  0.50000000  0.50000000  0.50000000  1
  Mn  Mn5  1  0.00000000  0.50000000  0.00000000  1
  Mn  Mn6  1  0.50000000  0.00000000  0.50000000  1
  Mn  Mn7  1  0.00000000  0.00000000  0.00000000  1
  Si  Si8  1  0.40760103  0.25000000  0.08988578  1
  Si  Si9  1  0.59239897  0.75000000  0.91011422  1
  Si  Si10  1  0.09239897  0.25000000  0.58988578  1
  Si  Si11  1  0.90760103  0.75000000  0.41011422  1
  S  S12  1  0.74506934  0.52421568  0.83340791  1
  S  S13  1  0.24506934  0.47578432  0.66659209  1
  S  S14  1  0.25493066  0.02421568  0.16659209  1
  S  S15  1  0.75493066  0.97578432  0.33340791  1
  S  S16  1  0.24506934  0.02421568  0.66659209  1
  S  S17  1  0.25493066  0.47578432  0.16659209  1
  S  S18  1  0.74506934  0.97578432  0.83340791  1
  S  S19  1  0.75493066  0.52421568  0.33340791  1
  S  S20  1  0.26215242  0.75000000  0.40766895  1
  S  S21  1  0.76215242  0.25000000  0.09233105  1
  S  S22  1  0.73784758  0.25000000  0.59233105  1
  S  S23  1  0.23784758  0.75000000  0.90766895  1
  S  S24  1  0.76310306  0.75000000  0.56492578  1
  S  S25  1  0.26310306  0.25000000  0.93507422  1
  S  S26  1  0.23689694  0.25000000  0.43507422  1
  S  S27  1  0.73689694  0.75000000  0.06492578  1
