# generated using pymatgen
data_NdCoSi2
_symmetry_space_group_name_H-M   'P 1'
_cell_length_a   4.04125566
_cell_length_b   4.15742701
_cell_length_c   8.41752135
_cell_angle_alpha   104.29715216
_cell_angle_beta   90.00000000
_cell_angle_gamma   90.00000000
_symmetry_Int_Tables_number   1
_chemical_formula_structural   NdCoSi2
_chemical_formula_sum   'Nd2 Co2 Si4'
_cell_volume   137.04446996
_cell_formula_units_Z   2
loop_
 _symmetry_equiv_pos_site_id
 _symmetry_equiv_pos_as_xyz
  1  'x, y, z'
loop_
 _atom_site_type_symbol
 _atom_site_label
 _atom_site_symmetry_multiplicity
 _atom_site_fract_x
 _atom_site_fract_y
 _atom_site_fract_z
 _atom_site_occupancy
  Nd  Nd0  1  0.25000000  0.89234593  0.78469386  1
  Nd  Nd1  1  0.75000000  0.10765407  0.21530614  1
  Co  Co2  1  0.75000000  0.31822107  0.63644114  1
  Co  Co3  1  0.25000000  0.68177893  0.36355886  1
  Si  Si4  1  0.25000000  0.25009966  0.50019931  1
  Si  Si5  1  0.75000000  0.74990034  0.49980069  1
  Si  Si6  1  0.75000000  0.45585908  0.91171616  1
  Si  Si7  1  0.25000000  0.54414092  0.08828384  1
