# generated using pymatgen
data_Cu4As2O9
_symmetry_space_group_name_H-M   'P 1'
_cell_length_a   6.40688035
_cell_length_b   7.67016886
_cell_length_c   8.25339728
_cell_angle_alpha   98.74406091
_cell_angle_beta   112.43570054
_cell_angle_gamma   97.88078314
_symmetry_Int_Tables_number   1
_chemical_formula_structural   Cu4As2O9
_chemical_formula_sum   'Cu8 As4 O18'
_cell_volume   361.97970989
_cell_formula_units_Z   2
loop_
 _symmetry_equiv_pos_site_id
 _symmetry_equiv_pos_as_xyz
  1  'x, y, z'
loop_
 _atom_site_type_symbol
 _atom_site_label
 _atom_site_symmetry_multiplicity
 _atom_site_fract_x
 _atom_site_fract_y
 _atom_site_fract_z
 _atom_site_occupancy
  Cu  Cu0  1  0.61905612  0.38617403  0.74326134  1
  Cu  Cu1  1  0.14646936  0.88069393  0.08566511  1
  Cu  Cu2  1  0.34747448  0.84160832  0.55040866  1
  Cu  Cu3  1  0.09518930  0.35561547  0.73250501  1
  Cu  Cu4  1  0.85353064  0.11930607  0.91433489  1
  Cu  Cu5  1  0.38094388  0.61382597  0.25673866  1
  Cu  Cu6  1  0.90481070  0.64438453  0.26749499  1
  Cu  Cu7  1  0.65252552  0.15839168  0.44959134  1
  As  As8  1  0.13114447  0.23141581  0.35178566  1
  As  As9  1  0.50159453  0.28881153  0.08814200  1
  As  As10  1  0.86885553  0.76858419  0.64821434  1
  As  As11  1  0.49840547  0.71118847  0.91185800  1
  O  O12  1  0.50240123  0.88555636  0.80868643  1
  O  O13  1  0.37407459  0.17235226  0.49049225  1
  O  O14  1  0.22967684  0.30973512  0.97072982  1
  O  O15  1  0.77032316  0.69026488  0.02927018  1
  O  O16  1  0.62608560  0.48895098  0.25283373  1
  O  O17  1  0.66083396  0.28021900  0.96374911  1
  O  O18  1  0.00763060  0.93161163  0.84436828  1
  O  O19  1  0.37391440  0.51104902  0.74716627  1
  O  O20  1  0.80498492  0.22379770  0.70933903  1
  O  O21  1  0.99236940  0.06838837  0.15563172  1
  O  O22  1  0.03459300  0.76869850  0.52871104  1
  O  O23  1  0.19501508  0.77620230  0.29066097  1
  O  O24  1  0.33916604  0.71978100  0.03625089  1
  O  O25  1  0.49759877  0.11444364  0.19131357  1
  O  O26  1  0.17313123  0.43981771  0.31417326  1
  O  O27  1  0.82686877  0.56018229  0.68582674  1
  O  O28  1  0.96540700  0.23130150  0.47128896  1
  O  O29  1  0.62592541  0.82764774  0.50950775  1
