# generated using pymatgen
data_CsSO3
_symmetry_space_group_name_H-M   'P 1'
_cell_length_a   6.33106207
_cell_length_b   6.33106359
_cell_length_c   11.60598051
_cell_angle_alpha   90.00000000
_cell_angle_beta   90.00000000
_cell_angle_gamma   120.00000256
_symmetry_Int_Tables_number   1
_chemical_formula_structural   CsSO3
_chemical_formula_sum   'Cs4 S4 O12'
_cell_volume   402.87071972
_cell_formula_units_Z   4
loop_
 _symmetry_equiv_pos_site_id
 _symmetry_equiv_pos_as_xyz
  1  'x, y, z'
loop_
 _atom_site_type_symbol
 _atom_site_label
 _atom_site_symmetry_multiplicity
 _atom_site_fract_x
 _atom_site_fract_y
 _atom_site_fract_z
 _atom_site_occupancy
  Cs  Cs0  1  0.66666700  0.33333300  0.23979306  1
  Cs  Cs1  1  0.00000000  0.00000000  0.00006696  1
  Cs  Cs2  1  0.33333300  0.66666700  0.73979306  1
  Cs  Cs3  1  0.00000000  0.00000000  0.50006696  1
  S  S4  1  0.33333300  0.66666700  0.21968765  1
  S  S5  1  0.66666700  0.33333300  0.71968765  1
  S  S6  1  0.33333300  0.66666700  0.40499897  1
  S  S7  1  0.66666700  0.33333300  0.90499897  1
  O  O8  1  0.40875660  0.20437780  0.68991761  1
  O  O9  1  0.07638813  0.53819407  0.43740251  1
  O  O10  1  0.20437780  0.40875660  0.18991761  1
  O  O11  1  0.53819407  0.07638813  0.93740251  1
  O  O12  1  0.46180593  0.92361187  0.43740251  1
  O  O13  1  0.92361187  0.46180593  0.93740251  1
  O  O14  1  0.20437780  0.79562220  0.18991761  1
  O  O15  1  0.79562220  0.59124340  0.68991761  1
  O  O16  1  0.59124340  0.79562220  0.18991761  1
  O  O17  1  0.79562220  0.20437780  0.68991761  1
  O  O18  1  0.53819407  0.46180593  0.93740251  1
  O  O19  1  0.46180593  0.53819407  0.43740251  1
