# generated using pymatgen
data_Cs(WCl3)3
_symmetry_space_group_name_H-M   'P 1'
_cell_length_a   9.60203058
_cell_length_b   9.60161263
_cell_length_c   8.53846716
_cell_angle_alpha   90.00002990
_cell_angle_beta   90.00174237
_cell_angle_gamma   119.99300896
_symmetry_Int_Tables_number   1
_chemical_formula_structural   Cs(WCl3)3
_chemical_formula_sum   'Cs2 W6 Cl18'
_cell_volume   681.78650315
_cell_formula_units_Z   2
loop_
 _symmetry_equiv_pos_site_id
 _symmetry_equiv_pos_as_xyz
  1  'x, y, z'
loop_
 _atom_site_type_symbol
 _atom_site_label
 _atom_site_symmetry_multiplicity
 _atom_site_fract_x
 _atom_site_fract_y
 _atom_site_fract_z
 _atom_site_occupancy
  Cs  Cs0  1  0.66666098  0.33333682  0.41634346  1
  Cs  Cs1  1  0.33333903  0.66666507  0.58365734  1
  W  W2  1  0.16801525  0.19298085  0.12879427  1
  W  W3  1  0.19298320  0.02496564  0.87120550  1
  W  W4  1  0.97500919  0.16803120  0.87120648  1
  W  W5  1  0.02498975  0.83197072  0.12878352  1
  W  W6  1  0.83198410  0.80701531  0.87120910  1
  W  W7  1  0.80702583  0.97503361  0.12880195  1
  Cl  Cl8  1  0.64102728  0.58909868  0.69811548  1
  Cl  Cl9  1  0.05192781  0.64098623  0.30188198  1
  Cl  Cl10  1  0.83791120  0.58749004  0.99893560  1
  Cl  Cl11  1  0.58909487  0.94809317  0.30188027  1
  Cl  Cl12  1  0.41247433  0.25038598  0.99894703  1
  Cl  Cl13  1  0.58752431  0.74961271  0.00104905  1
  Cl  Cl14  1  0.97252709  0.18516970  0.31184249  1
  Cl  Cl15  1  0.81486045  0.78739974  0.31183951  1
  Cl  Cl16  1  0.74959576  0.16213516  0.99894035  1
  Cl  Cl17  1  0.25039998  0.83786693  0.00106109  1
  Cl  Cl18  1  0.18513876  0.21260431  0.68816142  1
  Cl  Cl19  1  0.02746473  0.81482254  0.68815401  1
  Cl  Cl20  1  0.78738678  0.97256886  0.68816360  1
  Cl  Cl21  1  0.21261530  0.02743453  0.31183947  1
  Cl  Cl22  1  0.16208915  0.41250613  0.00106282  1
  Cl  Cl23  1  0.94807442  0.35901475  0.69811902  1
  Cl  Cl24  1  0.35897037  0.41090369  0.30188606  1
  Cl  Cl25  1  0.41091011  0.05190763  0.69811910  1
