# generated using pymatgen
data_RbTh3F13
_symmetry_space_group_name_H-M   'P 1'
_cell_length_a   7.44653702
_cell_length_b   8.16248444
_cell_length_c   8.65974154
_cell_angle_alpha   90.00000000
_cell_angle_beta   90.00000000
_cell_angle_gamma   90.00000000
_symmetry_Int_Tables_number   1
_chemical_formula_structural   RbTh3F13
_chemical_formula_sum   'Rb2 Th6 F26'
_cell_volume   526.35851077
_cell_formula_units_Z   2
loop_
 _symmetry_equiv_pos_site_id
 _symmetry_equiv_pos_as_xyz
  1  'x, y, z'
loop_
 _atom_site_type_symbol
 _atom_site_label
 _atom_site_symmetry_multiplicity
 _atom_site_fract_x
 _atom_site_fract_y
 _atom_site_fract_z
 _atom_site_occupancy
  Rb  Rb0  1  0.89410987  0.50000000  0.69293493  1
  Rb  Rb1  1  0.10589013  0.50000000  0.19293493  1
  Th  Th2  1  0.60312061  0.25309870  0.33458452  1
  Th  Th3  1  0.60312061  0.74690130  0.33458452  1
  Th  Th4  1  0.39687939  0.74690130  0.83458452  1
  Th  Th5  1  0.39687939  0.25309870  0.83458452  1
  Th  Th6  1  0.10784605  0.00000000  0.50045248  1
  Th  Th7  1  0.89215395  0.00000000  0.00045248  1
  F  F8  1  0.69590091  0.82606513  0.86490642  1
  F  F9  1  0.56329172  0.50000000  0.84730275  1
  F  F10  1  0.11539450  0.80411063  0.95719113  1
  F  F11  1  0.82583933  0.74426757  0.14356834  1
  F  F12  1  0.36240690  0.00000000  0.67864695  1
  F  F13  1  0.03219954  0.00000000  0.23689673  1
  F  F14  1  0.88460550  0.19588937  0.45719113  1
  F  F15  1  0.43670828  0.50000000  0.34730275  1
  F  F16  1  0.96780046  0.00000000  0.73689673  1
  F  F17  1  0.45221789  0.69573903  0.09693154  1
  F  F18  1  0.77255234  0.50000000  0.36832430  1
  F  F19  1  0.45221789  0.30426097  0.09693154  1
  F  F20  1  0.54778211  0.69573903  0.59693154  1
  F  F21  1  0.59836201  0.00000000  0.45957794  1
  F  F22  1  0.30409909  0.82606513  0.36490642  1
  F  F23  1  0.22744766  0.50000000  0.86832430  1
  F  F24  1  0.82583933  0.25573243  0.14356834  1
  F  F25  1  0.17416067  0.74426757  0.64356834  1
  F  F26  1  0.17416067  0.25573243  0.64356834  1
  F  F27  1  0.30409909  0.17393487  0.36490642  1
  F  F28  1  0.69590091  0.17393487  0.86490642  1
  F  F29  1  0.63759310  0.00000000  0.17864695  1
  F  F30  1  0.40163799  0.00000000  0.95957794  1
  F  F31  1  0.11539450  0.19588937  0.95719113  1
  F  F32  1  0.54778211  0.30426097  0.59693154  1
  F  F33  1  0.88460550  0.80411063  0.45719113  1
