# generated using pymatgen
data_KYP2O7
_symmetry_space_group_name_H-M   'P 1'
_cell_length_a   5.41342001
_cell_length_b   5.41342050
_cell_length_c   12.13710099
_cell_angle_alpha   90.00000000
_cell_angle_beta   90.00000000
_cell_angle_gamma   116.13221172
_symmetry_Int_Tables_number   1
_chemical_formula_structural   KYP2O7
_chemical_formula_sum   'K2 Y2 P4 O14'
_cell_volume   319.32169648
_cell_formula_units_Z   2
loop_
 _symmetry_equiv_pos_site_id
 _symmetry_equiv_pos_as_xyz
  1  'x, y, z'
loop_
 _atom_site_type_symbol
 _atom_site_label
 _atom_site_symmetry_multiplicity
 _atom_site_fract_x
 _atom_site_fract_y
 _atom_site_fract_z
 _atom_site_occupancy
  K  K0  1  0.69602589  0.30397411  0.25000000  1
  K  K1  1  0.30397411  0.69602589  0.75000000  1
  Y  Y2  1  -0.00000000  -0.00000000  0.00000000  1
  Y  Y3  1  -0.00000000  -0.00000000  0.50000000  1
  P  P4  1  0.35691325  0.64308675  0.37082942  1
  P  P5  1  0.64308675  0.35691325  0.62917058  1
  P  P6  1  0.35691325  0.64308675  0.12917058  1
  P  P7  1  0.64308675  0.35691325  0.87082942  1
  O  O8  1  0.33234445  0.22866413  0.62432683  1
  O  O9  1  0.76982069  0.23017931  0.55140875  1
  O  O10  1  0.66765555  0.77133587  0.37567317  1
  O  O11  1  0.66765555  0.77133587  0.12432683  1
  O  O12  1  0.23017931  0.76982069  0.44859125  1
  O  O13  1  0.77133587  0.66765555  0.87567317  1
  O  O14  1  0.23017931  0.76982069  0.05140875  1
  O  O15  1  0.76982069  0.23017931  0.94859125  1
  O  O16  1  0.77133587  0.66765555  0.62432683  1
  O  O17  1  0.71971285  0.28028715  0.75000000  1
  O  O18  1  0.22866413  0.33234445  0.37567317  1
  O  O19  1  0.22866413  0.33234445  0.12432683  1
  O  O20  1  0.28028715  0.71971285  0.25000000  1
  O  O21  1  0.33234445  0.22866413  0.87567317  1
