# generated using pymatgen
data_BaAg2SnS4
_symmetry_space_group_name_H-M   'P 1'
_cell_length_a   6.46721042
_cell_length_b   6.46721042
_cell_length_c   6.46721042
_cell_angle_alpha   116.07166213
_cell_angle_beta   111.92249929
_cell_angle_gamma   100.78667920
_symmetry_Int_Tables_number   1
_chemical_formula_structural   BaAg2SnS4
_chemical_formula_sum   'Ba1 Ag2 Sn1 S4'
_cell_volume   204.39579007
_cell_formula_units_Z   1
loop_
 _symmetry_equiv_pos_site_id
 _symmetry_equiv_pos_as_xyz
  1  'x, y, z'
loop_
 _atom_site_type_symbol
 _atom_site_label
 _atom_site_symmetry_multiplicity
 _atom_site_fract_x
 _atom_site_fract_y
 _atom_site_fract_z
 _atom_site_occupancy
  Ba  Ba0  1  -0.00000000  -0.00000000  -0.00000000  1
  Ag  Ag1  1  0.31443663  0.81443663  0.50000000  1
  Ag  Ag2  1  0.68556337  0.18556337  0.50000000  1
  Sn  Sn3  1  0.50000000  0.50000000  -0.00000000  1
  S  S4  1  0.47840826  0.87234077  0.01241078  1
  S  S5  1  0.85992999  0.46599748  0.98758922  1
  S  S6  1  0.52159174  0.53400252  0.39393251  1
  S  S7  1  0.14007001  0.12765923  0.60606749  1
