# generated using pymatgen
data_CO2
_symmetry_space_group_name_H-M   'P 1'
_cell_length_a   5.67889084
_cell_length_b   4.78454533
_cell_length_c   6.31553964
_cell_angle_alpha   90.00000000
_cell_angle_beta   90.00000000
_cell_angle_gamma   90.00000000
_symmetry_Int_Tables_number   1
_chemical_formula_structural   CO2
_chemical_formula_sum   'C4 O8'
_cell_volume   171.59896325
_cell_formula_units_Z   4
loop_
 _symmetry_equiv_pos_site_id
 _symmetry_equiv_pos_as_xyz
  1  'x, y, z'
loop_
 _atom_site_type_symbol
 _atom_site_label
 _atom_site_symmetry_multiplicity
 _atom_site_fract_x
 _atom_site_fract_y
 _atom_site_fract_z
 _atom_site_occupancy
  C  C0  1  0.25000000  0.50000000  0.85299852  1
  C  C1  1  0.25000000  0.00000000  0.35299852  1
  C  C2  1  0.75000000  0.00000000  0.64700148  1
  C  C3  1  0.75000000  0.50000000  0.14700148  1
  O  O4  1  0.86641698  0.29902888  0.14632846  1
  O  O5  1  0.63358302  0.70097112  0.14632846  1
  O  O6  1  0.86641698  0.20097112  0.64632846  1
  O  O7  1  0.13358302  0.79902888  0.35367154  1
  O  O8  1  0.63358302  0.79902888  0.64632846  1
  O  O9  1  0.36641698  0.20097112  0.35367154  1
  O  O10  1  0.36641698  0.29902888  0.85367154  1
  O  O11  1  0.13358302  0.70097112  0.85367154  1
