# generated using pymatgen
data_Ho(SiAu)2
_symmetry_space_group_name_H-M   'P 1'
_cell_length_a   4.23415364
_cell_length_b   4.23415345
_cell_length_c   5.88960985
_cell_angle_alpha   111.06701552
_cell_angle_beta   111.06701129
_cell_angle_gamma   89.99999864
_symmetry_Int_Tables_number   1
_chemical_formula_structural   Ho(SiAu)2
_chemical_formula_sum   'Ho1 Si2 Au2'
_cell_volume   90.92808062
_cell_formula_units_Z   1
loop_
 _symmetry_equiv_pos_site_id
 _symmetry_equiv_pos_as_xyz
  1  'x, y, z'
loop_
 _atom_site_type_symbol
 _atom_site_label
 _atom_site_symmetry_multiplicity
 _atom_site_fract_x
 _atom_site_fract_y
 _atom_site_fract_z
 _atom_site_occupancy
  Ho  Ho0  1  0.00000000  0.00000000  -0.00000000  1
  Si  Si1  1  0.38813923  0.38813923  0.77628046  1
  Si  Si2  1  0.61186077  0.61186077  0.22371954  1
  Au  Au3  1  0.75000000  0.25000000  0.50000000  1
  Au  Au4  1  0.25000000  0.75000000  0.50000000  1
