# generated using pymatgen
data_PrOs2
_symmetry_space_group_name_H-M   'P 1'
_cell_length_a   5.34906892
_cell_length_b   5.34906874
_cell_length_c   9.20962785
_cell_angle_alpha   90.00000000
_cell_angle_beta   90.00000000
_cell_angle_gamma   120.00001371
_symmetry_Int_Tables_number   1
_chemical_formula_structural   PrOs2
_chemical_formula_sum   'Pr4 Os8'
_cell_volume   228.20703345
_cell_formula_units_Z   4
loop_
 _symmetry_equiv_pos_site_id
 _symmetry_equiv_pos_as_xyz
  1  'x, y, z'
loop_
 _atom_site_type_symbol
 _atom_site_label
 _atom_site_symmetry_multiplicity
 _atom_site_fract_x
 _atom_site_fract_y
 _atom_site_fract_z
 _atom_site_occupancy
  Pr  Pr0  1  0.33333300  0.66666700  0.43531144  1
  Pr  Pr1  1  0.66666700  0.33333300  0.56468856  1
  Pr  Pr2  1  0.66666700  0.33333300  0.93531144  1
  Pr  Pr3  1  0.33333300  0.66666700  0.06468856  1
  Os  Os4  1  0.16930959  0.33862018  0.75000000  1
  Os  Os5  1  0.16930959  0.83069041  0.75000000  1
  Os  Os6  1  0.33862018  0.16930959  0.25000000  1
  Os  Os7  1  0.83069041  0.66137982  0.25000000  1
  Os  Os8  1  0.66137982  0.83069041  0.75000000  1
  Os  Os9  1  -0.00000000  0.00000000  -0.00000000  1
  Os  Os10  1  0.83069041  0.16930959  0.25000000  1
  Os  Os11  1  -0.00000000  0.00000000  0.50000000  1
