# generated using pymatgen
data_Pu(IO3)4
_symmetry_space_group_name_H-M   'P 1'
_cell_length_a   9.86175357
_cell_length_b   9.86175357
_cell_length_c   5.31641265
_cell_angle_alpha   90.00000000
_cell_angle_beta   90.00000000
_cell_angle_gamma   90.00000000
_symmetry_Int_Tables_number   1
_chemical_formula_structural   Pu(IO3)4
_chemical_formula_sum   'Pu2 I8 O24'
_cell_volume   517.04337083
_cell_formula_units_Z   2
loop_
 _symmetry_equiv_pos_site_id
 _symmetry_equiv_pos_as_xyz
  1  'x, y, z'
loop_
 _atom_site_type_symbol
 _atom_site_label
 _atom_site_symmetry_multiplicity
 _atom_site_fract_x
 _atom_site_fract_y
 _atom_site_fract_z
 _atom_site_occupancy
  Pu  Pu0  1  0.50000000  0.50000000  -0.00000000  1
  Pu  Pu1  1  0.00000000  0.00000000  0.50000000  1
  I  I2  1  -0.00029284  0.27634331  0.96967418  1
  I  I3  1  0.49970716  0.77634331  0.53032582  1
  I  I4  1  0.50029284  0.22365669  0.53032582  1
  I  I5  1  0.27634331  0.00029284  0.03032582  1
  I  I6  1  0.22365669  0.49970716  0.46967418  1
  I  I7  1  0.72365669  -0.00029284  0.03032582  1
  I  I8  1  0.77634331  0.50029284  0.46967418  1
  I  I9  1  0.00029284  0.72365669  0.96967418  1
  O  O10  1  0.58035969  0.69200998  0.79561409  1
  O  O11  1  0.69200998  0.41964031  0.20438591  1
  O  O12  1  0.90939402  0.37789821  0.50436524  1
  O  O13  1  0.57310034  0.65590733  0.30435442  1
  O  O14  1  0.34409267  0.57310034  0.69564558  1
  O  O15  1  0.19200998  0.91964031  0.29561409  1
  O  O16  1  0.15590733  0.92689966  0.80435442  1
  O  O17  1  0.30799002  0.58035969  0.20438591  1
  O  O18  1  0.80799002  0.08035969  0.29561409  1
  O  O19  1  0.65590733  0.42689966  0.69564558  1
  O  O20  1  0.59060598  0.12210179  0.99563476  1
  O  O21  1  0.09060598  0.62210179  0.50436524  1
  O  O22  1  0.37789821  0.09060598  0.49563476  1
  O  O23  1  0.91964031  0.80799002  0.70438591  1
  O  O24  1  0.08035969  0.19200998  0.70438591  1
  O  O25  1  0.62210179  0.90939402  0.49563476  1
  O  O26  1  0.07310034  0.15590733  0.19564558  1
  O  O27  1  0.42689966  0.34409267  0.30435442  1
  O  O28  1  0.12210179  0.40939402  0.00436524  1
  O  O29  1  0.87789821  0.59060598  0.00436524  1
  O  O30  1  0.40939402  0.87789821  0.99563476  1
  O  O31  1  0.92689966  0.84409267  0.19564558  1
  O  O32  1  0.41964031  0.30799002  0.79561409  1
  O  O33  1  0.84409267  0.07310034  0.80435442  1
