# generated using pymatgen
data_NaMn2O4
_symmetry_space_group_name_H-M   'P 1'
_cell_length_a   2.85641495
_cell_length_b   8.85115454
_cell_length_c   11.02147153
_cell_angle_alpha   90.00000000
_cell_angle_beta   90.00000000
_cell_angle_gamma   90.00000000
_symmetry_Int_Tables_number   1
_chemical_formula_structural   NaMn2O4
_chemical_formula_sum   'Na4 Mn8 O16'
_cell_volume   278.65112714
_cell_formula_units_Z   4
loop_
 _symmetry_equiv_pos_site_id
 _symmetry_equiv_pos_as_xyz
  1  'x, y, z'
loop_
 _atom_site_type_symbol
 _atom_site_label
 _atom_site_symmetry_multiplicity
 _atom_site_fract_x
 _atom_site_fract_y
 _atom_site_fract_z
 _atom_site_occupancy
  Na  Na0  1  0.25000000  0.74642122  0.83745569  1
  Na  Na1  1  0.25000000  0.24642122  0.66254431  1
  Na  Na2  1  0.75000000  0.25357878  0.16254431  1
  Na  Na3  1  0.75000000  0.75357878  0.33745569  1
  Mn  Mn4  1  0.25000000  0.56885127  0.61224792  1
  Mn  Mn5  1  0.25000000  0.06885127  0.88775208  1
  Mn  Mn6  1  0.75000000  0.43114873  0.38775208  1
  Mn  Mn7  1  0.75000000  0.93114873  0.11224792  1
  Mn  Mn8  1  0.25000000  0.58172940  0.09677810  1
  Mn  Mn9  1  0.25000000  0.08172940  0.40322190  1
  Mn  Mn10  1  0.75000000  0.41827060  0.90322190  1
  Mn  Mn11  1  0.75000000  0.91827060  0.59677810  1
  O  O12  1  0.25000000  0.78848506  0.15225074  1
  O  O13  1  0.25000000  0.28848506  0.34774926  1
  O  O14  1  0.75000000  0.21151494  0.84774926  1
  O  O15  1  0.75000000  0.71151494  0.65225074  1
  O  O16  1  0.25000000  0.88352179  0.47973552  1
  O  O17  1  0.25000000  0.38352179  0.02026448  1
  O  O18  1  0.75000000  0.11647821  0.52026448  1
  O  O19  1  0.75000000  0.61647821  0.97973552  1
  O  O20  1  0.25000000  0.97299162  0.69947428  1
  O  O21  1  0.25000000  0.47299162  0.80052572  1
  O  O22  1  0.75000000  0.02700838  0.30052572  1
  O  O23  1  0.75000000  0.52700838  0.19947428  1
  O  O24  1  0.25000000  0.56944946  0.41545588  1
  O  O25  1  0.25000000  0.06944946  0.08454412  1
  O  O26  1  0.75000000  0.43055054  0.58454412  1
  O  O27  1  0.75000000  0.93055054  0.91545588  1
