# generated using pymatgen
data_Nd3(CuGe)4
_symmetry_space_group_name_H-M   'P 1'
_cell_length_a   4.31234781
_cell_length_b   6.70309205
_cell_length_c   8.17007935
_cell_angle_alpha   114.21878951
_cell_angle_beta   105.30224536
_cell_angle_gamma   90.00000640
_symmetry_Int_Tables_number   1
_chemical_formula_structural   Nd3(CuGe)4
_chemical_formula_sum   'Nd3 Cu4 Ge4'
_cell_volume   206.16376743
_cell_formula_units_Z   1
loop_
 _symmetry_equiv_pos_site_id
 _symmetry_equiv_pos_as_xyz
  1  'x, y, z'
loop_
 _atom_site_type_symbol
 _atom_site_label
 _atom_site_symmetry_multiplicity
 _atom_site_fract_x
 _atom_site_fract_y
 _atom_site_fract_z
 _atom_site_occupancy
  Nd  Nd0  1  0.86663521  0.36663521  0.73327043  1
  Nd  Nd1  1  -0.00000000  0.00000000  0.00000000  1
  Nd  Nd2  1  0.13336479  0.63336479  0.26672957  1
  Cu  Cu3  1  0.66576338  0.35059077  0.33152776  1
  Cu  Cu4  1  0.33423662  0.64940923  0.66847224  1
  Cu  Cu5  1  0.33423662  0.01906300  0.66847224  1
  Cu  Cu6  1  0.66576338  0.98093700  0.33152776  1
  Ge  Ge7  1  0.50000000  0.31204660  1.00000000  1
  Ge  Ge8  1  0.21632506  0.21632506  0.43264912  1
  Ge  Ge9  1  0.78367494  0.78367494  0.56735088  1
  Ge  Ge10  1  0.50000000  0.68795340  0.00000000  1
