# generated using pymatgen
data_Na2SO4
_symmetry_space_group_name_H-M   'P 1'
_cell_length_a   5.19593775
_cell_length_b   6.93265105
_cell_length_c   9.43824800
_cell_angle_alpha   90.00000000
_cell_angle_beta   90.00000000
_cell_angle_gamma   90.00000000
_symmetry_Int_Tables_number   1
_chemical_formula_structural   Na2SO4
_chemical_formula_sum   'Na8 S4 O16'
_cell_volume   339.98101405
_cell_formula_units_Z   4
loop_
 _symmetry_equiv_pos_site_id
 _symmetry_equiv_pos_as_xyz
  1  'x, y, z'
loop_
 _atom_site_type_symbol
 _atom_site_label
 _atom_site_symmetry_multiplicity
 _atom_site_fract_x
 _atom_site_fract_y
 _atom_site_fract_z
 _atom_site_occupancy
  Na  Na0  1  -0.00000000  -0.00000000  0.50000000  1
  Na  Na1  1  0.50000000  -0.00000000  -0.00000000  1
  Na  Na2  1  -0.00000000  0.50000000  0.50000000  1
  Na  Na3  1  0.50000000  0.50000000  -0.00000000  1
  Na  Na4  1  0.01972099  0.75000000  0.85662467  1
  Na  Na5  1  0.51972099  0.25000000  0.64337533  1
  Na  Na6  1  0.98027901  0.25000000  0.14337533  1
  Na  Na7  1  0.48027901  0.75000000  0.35662467  1
  S  S8  1  0.98746978  0.75000000  0.17897659  1
  S  S9  1  0.48746978  0.25000000  0.32102341  1
  S  S10  1  0.01253022  0.25000000  0.82102341  1
  S  S11  1  0.51253022  0.75000000  0.67897659  1
  O  O12  1  0.96726453  0.75000000  0.33593770  1
  O  O13  1  0.46726453  0.25000000  0.16406230  1
  O  O14  1  0.03273547  0.25000000  0.66406230  1
  O  O15  1  0.53273547  0.75000000  0.83593770  1
  O  O16  1  0.26135715  0.75000000  0.13498520  1
  O  O17  1  0.76135715  0.25000000  0.36501480  1
  O  O18  1  0.73864285  0.25000000  0.86501480  1
  O  O19  1  0.23864285  0.75000000  0.63498520  1
  O  O20  1  0.85959237  0.92319249  0.12292509  1
  O  O21  1  0.35959237  0.07680751  0.37707491  1
  O  O22  1  0.14040763  0.42319249  0.87707491  1
  O  O23  1  0.64040763  0.57680751  0.62292509  1
  O  O24  1  0.14040763  0.07680751  0.87707491  1
  O  O25  1  0.64040763  0.92319249  0.62292509  1
  O  O26  1  0.85959237  0.57680751  0.12292509  1
  O  O27  1  0.35959237  0.42319249  0.37707491  1
