# generated using pymatgen
data_NaClO4
_symmetry_space_group_name_H-M   'P 1'
_cell_length_a   5.43847276
_cell_length_b   6.96454677
_cell_length_c   7.77634813
_cell_angle_alpha   90.00000000
_cell_angle_beta   90.00000000
_cell_angle_gamma   90.00000000
_symmetry_Int_Tables_number   1
_chemical_formula_structural   NaClO4
_chemical_formula_sum   'Na4 Cl4 O16'
_cell_volume   294.54083413
_cell_formula_units_Z   4
loop_
 _symmetry_equiv_pos_site_id
 _symmetry_equiv_pos_as_xyz
  1  'x, y, z'
loop_
 _atom_site_type_symbol
 _atom_site_label
 _atom_site_symmetry_multiplicity
 _atom_site_fract_x
 _atom_site_fract_y
 _atom_site_fract_z
 _atom_site_occupancy
  Na  Na0  1  0.75000000  0.18135615  0.81044093  1
  Na  Na1  1  0.75000000  0.31864385  0.31044093  1
  Na  Na2  1  0.25000000  0.81864385  0.18955907  1
  Na  Na3  1  0.25000000  0.68135615  0.68955907  1
  Cl  Cl4  1  0.75000000  0.82195626  0.44361777  1
  Cl  Cl5  1  0.75000000  0.67804374  0.94361777  1
  Cl  Cl6  1  0.25000000  0.17804374  0.55638223  1
  Cl  Cl7  1  0.25000000  0.32195626  0.05638223  1
  O  O8  1  0.75000000  0.57122422  0.10123851  1
  O  O9  1  0.03271338  0.20137113  0.06333953  1
  O  O10  1  0.53271338  0.79862887  0.93666047  1
  O  O11  1  0.25000000  0.42877578  0.89876149  1
  O  O12  1  0.46728662  0.20137113  0.06333953  1
  O  O13  1  0.03271338  0.29862887  0.56333953  1
  O  O14  1  0.75000000  0.54972670  0.79802702  1
  O  O15  1  0.25000000  0.04972670  0.70197298  1
  O  O16  1  0.96728662  0.70137113  0.43666047  1
  O  O17  1  0.25000000  0.07122422  0.39876149  1
  O  O18  1  0.75000000  0.92877578  0.60123851  1
  O  O19  1  0.46728662  0.29862887  0.56333953  1
  O  O20  1  0.75000000  0.95027330  0.29802702  1
  O  O21  1  0.25000000  0.45027330  0.20197298  1
  O  O22  1  0.96728662  0.79862887  0.93666047  1
  O  O23  1  0.53271338  0.70137113  0.43666047  1
