# generated using pymatgen
data_KNd(PO3)4
_symmetry_space_group_name_H-M   'P 1'
_cell_length_a   7.33464311
_cell_length_b   7.33464319
_cell_length_c   10.60226228
_cell_angle_alpha   100.81407682
_cell_angle_beta   100.81407468
_cell_angle_gamma   115.18344909
_symmetry_Int_Tables_number   1
_chemical_formula_structural   KNd(PO3)4
_chemical_formula_sum   'K2 Nd2 P8 O24'
_cell_volume   483.49452400
_cell_formula_units_Z   2
loop_
 _symmetry_equiv_pos_site_id
 _symmetry_equiv_pos_as_xyz
  1  'x, y, z'
loop_
 _atom_site_type_symbol
 _atom_site_label
 _atom_site_symmetry_multiplicity
 _atom_site_fract_x
 _atom_site_fract_y
 _atom_site_fract_z
 _atom_site_occupancy
  K  K0  1  0.31651837  0.18348163  0.75000000  1
  K  K1  1  0.68348163  0.81651837  0.25000000  1
  Nd  Nd2  1  0.61985308  0.88014692  0.75000000  1
  Nd  Nd3  1  0.38014692  0.11985308  0.25000000  1
  P  P4  1  0.19383131  0.73851912  0.43984662  1
  P  P5  1  0.86989536  0.71287629  0.00074808  1
  P  P6  1  0.13010464  0.28712371  0.99925192  1
  P  P7  1  0.76148088  0.30616869  0.06015338  1
  P  P8  1  0.80616869  0.26148088  0.56015338  1
  P  P9  1  0.23851912  0.69383131  0.93984662  1
  P  P10  1  0.78712371  0.63010464  0.49925192  1
  P  P11  1  0.21287629  0.36989536  0.50074808  1
  O  O12  1  0.03507584  0.28387317  0.57404245  1
  O  O13  1  0.41225547  0.50670166  0.61258176  1
  O  O14  1  0.96492416  0.71612683  0.42595755  1
  O  O15  1  0.80691146  0.81768890  0.59556222  1
  O  O16  1  0.74459508  0.19594434  0.67537377  1
  O  O17  1  0.99329834  0.08774453  0.88741824  1
  O  O18  1  0.58774453  0.49329834  0.38741824  1
  O  O19  1  0.36225706  0.83225701  0.08009452  1
  O  O20  1  0.00670166  0.91225547  0.11258176  1
  O  O21  1  0.78387317  0.53507584  0.07404245  1
  O  O22  1  0.30405566  0.75540492  0.82462623  1
  O  O23  1  0.68231110  0.69308854  0.90443778  1
  O  O24  1  0.63774294  0.16774299  0.91990548  1
  O  O25  1  0.25540492  0.80405566  0.32462623  1
  O  O26  1  0.31768890  0.30691146  0.09556222  1
  O  O27  1  0.99730934  0.64356770  0.91520668  1
  O  O28  1  0.33225701  0.86225706  0.58009452  1
  O  O29  1  0.21612683  0.46492416  0.92595755  1
  O  O30  1  0.85643230  0.50269066  0.58479332  1
  O  O31  1  0.66774299  0.13774294  0.41990548  1
  O  O32  1  0.69594434  0.24459508  0.17537377  1
  O  O33  1  0.19308854  0.18231110  0.40443678  1
  O  O34  1  0.00269066  0.35643230  0.08479332  1
  O  O35  1  0.14356770  0.49730934  0.41520668  1
