# generated using pymatgen
data_VFeO4
_symmetry_space_group_name_H-M   'P 1'
_cell_length_a   6.72243262
_cell_length_b   8.04190704
_cell_length_c   9.36820287
_cell_angle_alpha   96.70389941
_cell_angle_beta   106.82811283
_cell_angle_gamma   101.53370975
_symmetry_Int_Tables_number   1
_chemical_formula_structural   VFeO4
_chemical_formula_sum   'V6 Fe6 O24'
_cell_volume   466.67356427
_cell_formula_units_Z   6
loop_
 _symmetry_equiv_pos_site_id
 _symmetry_equiv_pos_as_xyz
  1  'x, y, z'
loop_
 _atom_site_type_symbol
 _atom_site_label
 _atom_site_symmetry_multiplicity
 _atom_site_fract_x
 _atom_site_fract_y
 _atom_site_fract_z
 _atom_site_occupancy
  V  V0  1  0.00552845  0.99705305  0.25714333  1
  V  V1  1  0.99447155  0.00294695  0.74285667  1
  V  V2  1  0.20010776  0.60213060  0.34271905  1
  V  V3  1  0.79989224  0.39786940  0.65728095  1
  V  V4  1  0.52200437  0.30011186  0.12639640  1
  V  V5  1  0.47799563  0.69988814  0.87360360  1
  Fe  Fe6  1  0.75714537  0.69394730  0.41158221  1
  Fe  Fe7  1  0.24285463  0.30605270  0.58841779  1
  Fe  Fe8  1  0.46643723  0.88808400  0.21093136  1
  Fe  Fe9  1  0.53356277  0.11191600  0.78906864  1
  Fe  Fe10  1  0.97374819  0.30468898  0.01422709  1
  Fe  Fe11  1  0.02625181  0.69531102  0.98577291  1
  O  O12  1  0.64642293  0.48708500  0.25201352  1
  O  O13  1  0.35357707  0.51291500  0.74798648  1
  O  O14  1  0.25456592  0.43677385  0.42714652  1
  O  O15  1  0.74543408  0.56322615  0.57285348  1
  O  O16  1  0.05312045  0.70259992  0.42660172  1
  O  O17  1  0.94687955  0.29740008  0.57339828  1
  O  O18  1  0.16078147  0.09593530  0.43129865  1
  O  O19  1  0.83921853  0.90406470  0.56870135  1
  O  O20  1  0.45147735  0.73888842  0.35992503  1
  O  O21  1  0.54852265  0.26111158  0.64007497  1
  O  O22  1  0.76149619  0.86815892  0.26304583  1
  O  O23  1  0.23850381  0.13184108  0.73695417  1
  O  O24  1  0.52520150  0.12579853  0.21659016  1
  O  O25  1  0.47479850  0.87420147  0.78340984  1
  O  O26  1  0.15062130  0.87325945  0.17672686  1
  O  O27  1  0.84937870  0.12674055  0.82327314  1
  O  O28  1  0.35735401  0.72828149  0.01891800  1
  O  O29  1  0.64264599  0.27171851  0.98108200  1
  O  O30  1  0.26333543  0.29801818  0.03654116  1
  O  O31  1  0.73666457  0.70198182  0.96345884  1
  O  O32  1  0.95057666  0.14872381  0.15266785  1
  O  O33  1  0.04942334  0.85127619  0.84733215  1
  O  O34  1  0.05484111  0.52857916  0.14755773  1
  O  O35  1  0.94515889  0.47142084  0.85244227  1
