# generated using pymatgen
data_Ag2TeO4
_symmetry_space_group_name_H-M   'P 1'
_cell_length_a   6.45622840
_cell_length_b   6.45622840
_cell_length_c   13.71695292
_cell_angle_alpha   89.37438693
_cell_angle_beta   89.37438693
_cell_angle_gamma   91.84175966
_symmetry_Int_Tables_number   1
_chemical_formula_structural   Ag2TeO4
_chemical_formula_sum   'Ag12 Te6 O24'
_cell_volume   571.39640540
_cell_formula_units_Z   6
loop_
 _symmetry_equiv_pos_site_id
 _symmetry_equiv_pos_as_xyz
  1  'x, y, z'
loop_
 _atom_site_type_symbol
 _atom_site_label
 _atom_site_symmetry_multiplicity
 _atom_site_fract_x
 _atom_site_fract_y
 _atom_site_fract_z
 _atom_site_occupancy
  Ag  Ag0  1  0.28049574  0.71950426  0.75000000  1
  Ag  Ag1  1  0.73798570  0.61631728  0.67467959  1
  Ag  Ag2  1  0.04176225  0.95823775  0.25000000  1
  Ag  Ag3  1  0.71950426  0.28049574  0.25000000  1
  Ag  Ag4  1  0.95823775  0.04176225  0.75000000  1
  Ag  Ag5  1  0.26201430  0.38368272  0.32532041  1
  Ag  Ag6  1  0.48595732  0.78182528  0.93150344  1
  Ag  Ag7  1  0.21817472  0.51404268  0.56849656  1
  Ag  Ag8  1  0.38368272  0.26201430  0.82532041  1
  Ag  Ag9  1  0.78182528  0.48595732  0.43150344  1
  Ag  Ag10  1  0.61631728  0.73798570  0.17467959  1
  Ag  Ag11  1  0.51404268  0.21817472  0.06849656  1
  Te  Te12  1  0.50030122  0.08653521  0.60404497  1
  Te  Te13  1  0.49969878  0.91346479  0.39595503  1
  Te  Te14  1  0.91346479  0.49969878  0.89595503  1
  Te  Te15  1  0.00000000  0.00000000  0.50000000  1
  Te  Te16  1  0.08653521  0.50030122  0.10404497  1
  Te  Te17  1  0.00000000  0.00000000  0.00000000  1
  O  O18  1  0.95213541  0.72679936  0.54679619  1
  O  O19  1  0.81907868  0.51013773  0.03342954  1
  O  O20  1  0.64445554  0.52387249  0.84973721  1
  O  O21  1  0.11229162  0.80259309  0.09585560  1
  O  O22  1  0.52387249  0.64445554  0.34973721  1
  O  O23  1  0.47612751  0.35554446  0.65026279  1
  O  O24  1  0.80259309  0.11229162  0.59585560  1
  O  O25  1  0.95439491  0.80309074  0.89283860  1
  O  O26  1  0.35554446  0.47612751  0.15026279  1
  O  O27  1  0.72679936  0.95213541  0.04679619  1
  O  O28  1  0.19740691  0.88770838  0.40414440  1
  O  O29  1  0.04786459  0.27320064  0.45320381  1
  O  O30  1  0.47736238  0.05036604  0.27514311  1
  O  O31  1  0.80309074  0.95439491  0.39283860  1
  O  O32  1  0.18092132  0.48986227  0.96657046  1
  O  O33  1  0.05036604  0.47736238  0.77514311  1
  O  O34  1  0.88770838  0.19740691  0.90414440  1
  O  O35  1  0.27320064  0.04786459  0.95320381  1
  O  O36  1  0.52263762  0.94963396  0.72485689  1
  O  O37  1  0.51013773  0.81907868  0.53342954  1
  O  O38  1  0.04560509  0.19690926  0.10716140  1
  O  O39  1  0.19690926  0.04560509  0.60716140  1
  O  O40  1  0.94963396  0.52263762  0.22485689  1
  O  O41  1  0.48986227  0.18092132  0.46657046  1
