# generated using pymatgen
data_SiO2
_symmetry_space_group_name_H-M   'P 1'
_cell_length_a   5.01416754
_cell_length_b   5.01416754
_cell_length_c   8.32005252
_cell_angle_alpha   89.17194458
_cell_angle_beta   89.17194458
_cell_angle_gamma   119.59550408
_symmetry_Int_Tables_number   1
_chemical_formula_structural   SiO2
_chemical_formula_sum   'Si4 O8'
_cell_volume   181.81548763
_cell_formula_units_Z   4
loop_
 _symmetry_equiv_pos_site_id
 _symmetry_equiv_pos_as_xyz
  1  'x, y, z'
loop_
 _atom_site_type_symbol
 _atom_site_label
 _atom_site_symmetry_multiplicity
 _atom_site_fract_x
 _atom_site_fract_y
 _atom_site_fract_z
 _atom_site_occupancy
  Si  Si0  1  0.36993001  0.77937650  0.28828381  1
  Si  Si1  1  0.70808792  0.44620994  0.16251632  1
  Si  Si2  1  0.77937650  0.36993001  0.78828381  1
  Si  Si3  1  0.44620994  0.70808792  0.66251632  1
  O  O4  1  0.78956473  0.44555805  0.97547764  1
  O  O5  1  0.68571076  0.58511631  0.68555989  1
  O  O6  1  0.11363497  0.44001185  0.72500908  1
  O  O7  1  0.44555805  0.78956473  0.47547764  1
  O  O8  1  0.44001185  0.11363497  0.22500908  1
  O  O9  1  0.01094785  0.54025213  0.26545326  1
  O  O10  1  0.58511631  0.68571076  0.18555989  1
  O  O11  1  0.54025213  0.01094785  0.76545326  1
