# generated using pymatgen
data_Cs2Zr7CI18
_symmetry_space_group_name_H-M   'P 1'
_cell_length_a   11.77312241
_cell_length_b   11.77312241
_cell_length_c   11.77312246
_cell_angle_alpha   55.54200316
_cell_angle_beta   55.54200317
_cell_angle_gamma   55.54200333
_symmetry_Int_Tables_number   1
_chemical_formula_structural   Cs2Zr7CI18
_chemical_formula_sum   'Cs2 Zr7 C1 I18'
_cell_volume   1034.46576863
_cell_formula_units_Z   1
loop_
 _symmetry_equiv_pos_site_id
 _symmetry_equiv_pos_as_xyz
  1  'x, y, z'
loop_
 _atom_site_type_symbol
 _atom_site_label
 _atom_site_symmetry_multiplicity
 _atom_site_fract_x
 _atom_site_fract_y
 _atom_site_fract_z
 _atom_site_occupancy
  Cs  Cs0  1  0.77540952  0.77540952  0.77540952  1
  Cs  Cs1  1  0.22459048  0.22459048  0.22459048  1
  Zr  Zr2  1  0.14386604  0.91249075  0.81195819  1
  Zr  Zr3  1  0.85613396  0.08750925  0.18804181  1
  Zr  Zr4  1  0.08750925  0.18804181  0.85613396  1
  Zr  Zr5  1  0.18804181  0.85613396  0.08750925  1
  Zr  Zr6  1  0.91249075  0.81195819  0.14386604  1
  Zr  Zr7  1  0.81195819  0.14386604  0.91249075  1
  Zr  Zr8  1  0.50000000  0.50000000  0.50000000  1
  C  C9  1  0.00000000  -0.00000000  -0.00000000  1
  I  I10  1  0.21469380  0.47619897  0.64268554  1
  I  I11  1  0.78530620  0.52380103  0.35731446  1
  I  I12  1  0.34500647  0.05617139  0.93120651  1
  I  I13  1  0.65499353  0.94382861  0.06879349  1
  I  I14  1  0.93120651  0.34500647  0.05617139  1
  I  I15  1  0.71265662  0.87227445  0.41549392  1
  I  I16  1  0.35731446  0.78530620  0.52380103  1
  I  I17  1  0.58450608  0.28734338  0.12772555  1
  I  I18  1  0.28734338  0.12772555  0.58450608  1
  I  I19  1  0.12772555  0.58450608  0.28734338  1
  I  I20  1  0.94382861  0.06879349  0.65499353  1
  I  I21  1  0.41549392  0.71265662  0.87227445  1
  I  I22  1  0.87227445  0.41549392  0.71265662  1
  I  I23  1  0.06879349  0.65499353  0.94382861  1
  I  I24  1  0.47619897  0.64268554  0.21469380  1
  I  I25  1  0.64268554  0.21469380  0.47619897  1
  I  I26  1  0.52380103  0.35731446  0.78530620  1
  I  I27  1  0.05617139  0.93120651  0.34500647  1
