# generated using pymatgen
data_YPO4
_symmetry_space_group_name_H-M   'P 1'
_cell_length_a   5.72768304
_cell_length_b   5.72768239
_cell_length_c   5.72768298
_cell_angle_alpha   106.05219930
_cell_angle_beta   106.05217781
_cell_angle_gamma   116.54972219
_symmetry_Int_Tables_number   1
_chemical_formula_structural   YPO4
_chemical_formula_sum   'Y2 P2 O8'
_cell_volume   142.97344423
_cell_formula_units_Z   2
loop_
 _symmetry_equiv_pos_site_id
 _symmetry_equiv_pos_as_xyz
  1  'x, y, z'
loop_
 _atom_site_type_symbol
 _atom_site_label
 _atom_site_symmetry_multiplicity
 _atom_site_fract_x
 _atom_site_fract_y
 _atom_site_fract_z
 _atom_site_occupancy
  Y  Y0  1  0.12500000  0.87500000  0.25000000  1
  Y  Y1  1  0.87500000  0.12500000  0.75000000  1
  P  P2  1  0.37500000  0.62500000  0.75000000  1
  P  P3  1  0.62500000  0.37500000  0.25000000  1
  O  O4  1  0.78394552  0.35929784  0.07535332  1
  O  O5  1  0.70859220  0.78394552  0.92464668  1
  O  O6  1  0.35929784  0.78394552  0.57535332  1
  O  O7  1  0.78394552  0.70859220  0.42464668  1
  O  O8  1  0.29140780  0.21605448  0.07535332  1
  O  O9  1  0.21605448  0.64070216  0.92464668  1
  O  O10  1  0.21605448  0.29140780  0.57535332  1
  O  O11  1  0.64070216  0.21605448  0.42464668  1
