# generated using pymatgen
data_La4Os6O19
_symmetry_space_group_name_H-M   'P 1'
_cell_length_a   7.85003645
_cell_length_b   7.85004467
_cell_length_c   7.85008073
_cell_angle_alpha   109.45862908
_cell_angle_beta   109.44884493
_cell_angle_gamma   109.50730192
_symmetry_Int_Tables_number   1
_chemical_formula_structural   La4Os6O19
_chemical_formula_sum   'La4 Os6 O19'
_cell_volume   372.38310215
_cell_formula_units_Z   1
loop_
 _symmetry_equiv_pos_site_id
 _symmetry_equiv_pos_as_xyz
  1  'x, y, z'
loop_
 _atom_site_type_symbol
 _atom_site_label
 _atom_site_symmetry_multiplicity
 _atom_site_fract_x
 _atom_site_fract_y
 _atom_site_fract_z
 _atom_site_occupancy
  La  La0  1  0.00065533  0.99978988  0.31791711  1
  La  La1  1  -0.00064615  0.31737068  -0.00088999  1
  La  La2  1  0.68180076  0.68271733  0.68205574  1
  La  La3  1  0.31821981  0.00026157  0.00094203  1
  Os  Os4  1  0.36488526  0.49998217  0.86488153  1
  Os  Os5  1  0.86434896  0.36436362  0.49998976  1
  Os  Os6  1  0.49999691  0.13555726  0.63556201  1
  Os  Os7  1  0.13563238  0.63565098  0.50000861  1
  Os  Os8  1  0.49999727  0.86442166  0.36442869  1
  Os  Os9  1  0.63512797  0.49999282  0.13512325  1
  O  O10  1  0.32222796  0.99998969  0.32222641  1
  O  O11  1  0.32306719  0.32305797  -0.00002938  1
  O  O12  1  0.00001344  0.67753868  0.67755761  1
  O  O13  1  0.67691193  0.67692107  -0.00001358  1
  O  O14  1  -0.00000653  0.32247026  0.32246595  1
  O  O15  1  0.67776706  0.00000167  0.67777075  1
  O  O16  1  0.00000777  0.00001576  0.00001820  1
  O  O17  1  0.36619761  0.30575524  0.62586985  1
  O  O18  1  0.05964871  0.32154955  0.69450897  1
  O  O19  1  0.73908490  0.37431224  0.67872843  1
  O  O20  1  0.37295882  0.67843092  0.73810409  1
  O  O21  1  0.26096509  0.93964023  0.63527721  1
  O  O22  1  0.62704188  0.36512936  0.30546208  1
  O  O23  1  0.30440452  0.62567959  0.36477331  1
  O  O24  1  0.69558545  0.06035435  0.32126989  1
  O  O25  1  0.94034648  0.63486228  0.26190988  1
  O  O26  1  0.67984367  0.74028755  0.37410125  1
  O  O27  1  0.63381123  0.25968647  0.93955478  1
  O  O28  1  0.32010531  0.69420913  0.06042758  1
