# generated using pymatgen
data_Nd5Sn4
_symmetry_space_group_name_H-M   'P 1'
_cell_length_a   8.34756647
_cell_length_b   8.44658950
_cell_length_c   15.98040553
_cell_angle_alpha   90.00000000
_cell_angle_beta   90.00000000
_cell_angle_gamma   90.00000000
_symmetry_Int_Tables_number   1
_chemical_formula_structural   Nd5Sn4
_chemical_formula_sum   'Nd20 Sn16'
_cell_volume   1126.75390069
_cell_formula_units_Z   4
loop_
 _symmetry_equiv_pos_site_id
 _symmetry_equiv_pos_as_xyz
  1  'x, y, z'
loop_
 _atom_site_type_symbol
 _atom_site_label
 _atom_site_symmetry_multiplicity
 _atom_site_fract_x
 _atom_site_fract_y
 _atom_site_fract_z
 _atom_site_occupancy
  Nd  Nd0  1  0.02808443  0.17849185  0.39899054  1
  Nd  Nd1  1  0.37916686  0.83838719  0.11821432  1
  Nd  Nd2  1  0.12083314  0.33838719  0.61821432  1
  Nd  Nd3  1  0.47191557  0.67849185  0.89899054  1
  Nd  Nd4  1  0.87916686  0.66161281  0.11821432  1
  Nd  Nd5  1  0.12083314  0.33838719  0.88178568  1
  Nd  Nd6  1  0.20807491  0.50322042  0.25000000  1
  Nd  Nd7  1  0.70807491  0.99677958  0.25000000  1
  Nd  Nd8  1  0.47191557  0.67849185  0.60100946  1
  Nd  Nd9  1  0.29192509  0.00322042  0.75000000  1
  Nd  Nd10  1  0.62083314  0.16161281  0.61821432  1
  Nd  Nd11  1  0.79192509  0.49677958  0.75000000  1
  Nd  Nd12  1  0.87916686  0.66161281  0.38178568  1
  Nd  Nd13  1  0.02808443  0.17849185  0.10100946  1
  Nd  Nd14  1  0.97191557  0.82150815  0.89899054  1
  Nd  Nd15  1  0.62083314  0.16161281  0.88178568  1
  Nd  Nd16  1  0.52808443  0.32150815  0.10100946  1
  Nd  Nd17  1  0.37916686  0.83838719  0.38178568  1
  Nd  Nd18  1  0.97191557  0.82150815  0.60100946  1
  Nd  Nd19  1  0.52808443  0.32150815  0.39899054  1
  Sn  Sn20  1  0.78080093  0.46810848  0.54339175  1
  Sn  Sn21  1  0.71919907  0.96810848  0.45660825  1
  Sn  Sn22  1  0.66859639  0.86006780  0.75000000  1
  Sn  Sn23  1  0.21919907  0.53189152  0.45660825  1
  Sn  Sn24  1  0.28080093  0.03189152  0.95660825  1
  Sn  Sn25  1  0.83140361  0.36006780  0.25000000  1
  Sn  Sn26  1  0.78080093  0.46810848  0.95660825  1
  Sn  Sn27  1  0.57989583  0.61443347  0.25000000  1
  Sn  Sn28  1  0.21919907  0.53189152  0.04339175  1
  Sn  Sn29  1  0.42010417  0.38556653  0.75000000  1
  Sn  Sn30  1  0.16859639  0.63993220  0.75000000  1
  Sn  Sn31  1  0.92010417  0.11443347  0.75000000  1
  Sn  Sn32  1  0.28080093  0.03189152  0.54339175  1
  Sn  Sn33  1  0.71919907  0.96810848  0.04339175  1
  Sn  Sn34  1  0.33140361  0.13993220  0.25000000  1
  Sn  Sn35  1  0.07989583  0.88556653  0.25000000  1
