# generated using pymatgen
data_NbFeF6
_symmetry_space_group_name_H-M   'P 1'
_cell_length_a   5.49975357
_cell_length_b   5.49975357
_cell_length_c   5.73966232
_cell_angle_alpha   61.37331771
_cell_angle_beta   61.37331771
_cell_angle_gamma   60.00000515
_symmetry_Int_Tables_number   1
_chemical_formula_structural   NbFeF6
_chemical_formula_sum   'Nb1 Fe1 F6'
_cell_volume   125.24706554
_cell_formula_units_Z   1
loop_
 _symmetry_equiv_pos_site_id
 _symmetry_equiv_pos_as_xyz
  1  'x, y, z'
loop_
 _atom_site_type_symbol
 _atom_site_label
 _atom_site_symmetry_multiplicity
 _atom_site_fract_x
 _atom_site_fract_y
 _atom_site_fract_z
 _atom_site_occupancy
  Nb  Nb0  1  0.50000000  0.50000000  0.50000000  1
  Fe  Fe1  1  0.00000000  0.00000000  0.00000000  1
  F  F2  1  0.34184800  0.16740500  0.74679900  1
  F  F3  1  0.74394800  0.34184800  0.74679900  1
  F  F4  1  0.16740500  0.74394800  0.74679900  1
  F  F5  1  0.65815200  0.83259500  0.25320100  1
  F  F6  1  0.25605200  0.65815200  0.25320100  1
  F  F7  1  0.83259500  0.25605200  0.25320100  1
