# generated using pymatgen
data_K2S2O7
_symmetry_space_group_name_H-M   'P 1'
_cell_length_a   7.12222655
_cell_length_b   7.12222655
_cell_length_c   7.26221138
_cell_angle_alpha   86.63076482
_cell_angle_beta   86.63076482
_cell_angle_gamma   61.39939834
_symmetry_Int_Tables_number   1
_chemical_formula_structural   K2S2O7
_chemical_formula_sum   'K4 S4 O14'
_cell_volume   322.67644091
_cell_formula_units_Z   2
loop_
 _symmetry_equiv_pos_site_id
 _symmetry_equiv_pos_as_xyz
  1  'x, y, z'
loop_
 _atom_site_type_symbol
 _atom_site_label
 _atom_site_symmetry_multiplicity
 _atom_site_fract_x
 _atom_site_fract_y
 _atom_site_fract_z
 _atom_site_occupancy
  K  K0  1  0.50012538  0.20607803  0.85810808  1
  K  K1  1  0.20607803  0.50012538  0.35810808  1
  K  K2  1  0.79392197  0.49987462  0.64189192  1
  K  K3  1  0.49987462  0.79392197  0.14189192  1
  S  S4  1  0.71710780  0.07657122  0.36213020  1
  S  S5  1  0.92342878  0.28289220  0.13786980  1
  S  S6  1  0.28289220  0.92342878  0.63786980  1
  S  S7  1  0.07657122  0.71710780  0.86213020  1
  O  O8  1  0.14319263  0.19438089  0.07425431  1
  O  O9  1  0.80561911  0.85680737  0.42574569  1
  O  O10  1  0.44579385  0.85977595  0.77330042  1
  O  O11  1  0.14022405  0.55420615  0.72669958  1
  O  O12  1  0.85680737  0.80561911  0.92574569  1
  O  O13  1  0.23024671  0.65521719  0.00536515  1
  O  O14  1  0.07421115  0.92578885  0.75000000  1
  O  O15  1  0.34478281  0.76975329  0.49463485  1
  O  O16  1  0.76975329  0.34478281  0.99463485  1
  O  O17  1  0.85977595  0.44579385  0.27330042  1
  O  O18  1  0.55420615  0.14022405  0.22669958  1
  O  O19  1  0.92578885  0.07421115  0.25000000  1
  O  O20  1  0.65521719  0.23024671  0.50536515  1
  O  O21  1  0.19438089  0.14319263  0.57425431  1
