# generated using pymatgen
data_NpI3
_symmetry_space_group_name_H-M   'P 1'
_cell_length_a   7.69356953
_cell_length_b   7.69356953
_cell_length_c   10.03303674
_cell_angle_alpha   90.00000000
_cell_angle_beta   90.00000000
_cell_angle_gamma   147.29851842
_symmetry_Int_Tables_number   1
_chemical_formula_structural   NpI3
_chemical_formula_sum   'Np2 I6'
_cell_volume   320.84306459
_cell_formula_units_Z   2
loop_
 _symmetry_equiv_pos_site_id
 _symmetry_equiv_pos_as_xyz
  1  'x, y, z'
loop_
 _atom_site_type_symbol
 _atom_site_label
 _atom_site_symmetry_multiplicity
 _atom_site_fract_x
 _atom_site_fract_y
 _atom_site_fract_z
 _atom_site_occupancy
  Np  Np0  1  0.73720364  0.26279636  0.75000000  1
  Np  Np1  1  0.26279636  0.73720364  0.25000000  1
  I  I2  1  0.08333909  0.91666091  0.75000000  1
  I  I3  1  0.91666091  0.08333909  0.25000000  1
  I  I4  1  0.65245640  0.34754360  0.06837770  1
  I  I5  1  0.34754360  0.65245640  0.93162230  1
  I  I6  1  0.34754360  0.65245640  0.56837770  1
  I  I7  1  0.65245640  0.34754360  0.43162230  1
