# generated using pymatgen
data_GdBi
_symmetry_space_group_name_H-M   'P 1'
_cell_length_a   4.51639642
_cell_length_b   4.51605227
_cell_length_c   4.51624221
_cell_angle_alpha   60.02724195
_cell_angle_beta   60.03041634
_cell_angle_gamma   60.02831564
_symmetry_Int_Tables_number   1
_chemical_formula_structural   GdBi
_chemical_formula_sum   'Gd1 Bi1'
_cell_volume   65.17713699
_cell_formula_units_Z   1
loop_
 _symmetry_equiv_pos_site_id
 _symmetry_equiv_pos_as_xyz
  1  'x, y, z'
loop_
 _atom_site_type_symbol
 _atom_site_label
 _atom_site_symmetry_multiplicity
 _atom_site_fract_x
 _atom_site_fract_y
 _atom_site_fract_z
 _atom_site_occupancy
  Gd  Gd0  1  0.50000092  0.49999956  0.49999975  1
  Bi  Bi1  1  0.99999908  0.00000044  0.00000025  1
