# generated using pymatgen
data_Zr6Co16Ge7
_symmetry_space_group_name_H-M   'P 1'
_cell_length_a   8.18104111
_cell_length_b   8.18106231
_cell_length_c   8.18104495
_cell_angle_alpha   59.99974719
_cell_angle_beta   59.99983345
_cell_angle_gamma   59.99988789
_symmetry_Int_Tables_number   1
_chemical_formula_structural   Zr6Co16Ge7
_chemical_formula_sum   'Zr6 Co16 Ge7'
_cell_volume   387.17767911
_cell_formula_units_Z   1
loop_
 _symmetry_equiv_pos_site_id
 _symmetry_equiv_pos_as_xyz
  1  'x, y, z'
loop_
 _atom_site_type_symbol
 _atom_site_label
 _atom_site_symmetry_multiplicity
 _atom_site_fract_x
 _atom_site_fract_y
 _atom_site_fract_z
 _atom_site_occupancy
  Zr  Zr0  1  0.70930874  0.29069176  0.29068706  1
  Zr  Zr1  1  0.29068498  0.29068405  0.70931085  1
  Zr  Zr2  1  0.29068505  0.70931807  0.70931580  1
  Zr  Zr3  1  0.70931531  0.70931136  0.29068599  1
  Zr  Zr4  1  0.29069038  0.70930890  0.29068405  1
  Zr  Zr5  1  0.70931840  0.29068679  0.70931074  1
  Co  Co6  1  0.12055357  0.12055029  0.63833999  1
  Co  Co7  1  0.67404422  0.97788377  0.67403761  1
  Co  Co8  1  0.36169898  0.87943240  0.87943606  1
  Co  Co9  1  0.02208338  0.32597042  0.32597534  1
  Co  Co10  1  0.97788398  0.67404217  0.67403644  1
  Co  Co11  1  0.32597525  0.32597196  0.02207851  1
  Co  Co12  1  0.67403535  0.67404148  0.97788699  1
  Co  Co13  1  0.63834306  0.12054893  0.12055530  1
  Co  Co14  1  0.67404037  0.67403655  0.67402901  1
  Co  Co15  1  0.87943560  0.87943571  0.36169476  1
  Co  Co16  1  0.12054913  0.12054841  0.12055652  1
  Co  Co17  1  0.87943193  0.36169665  0.87943695  1
  Co  Co18  1  0.87943337  0.87943733  0.87943558  1
  Co  Co19  1  0.32598108  0.32597188  0.32597055  1
  Co  Co20  1  0.12054963  0.63834416  0.12055373  1
  Co  Co21  1  0.32597564  0.02208217  0.32596862  1
  Ge  Ge22  1  -0.00004003  0.50004072  -0.00003252  1
  Ge  Ge23  1  -0.00004223  -0.00003760  0.50004151  1
  Ge  Ge24  1  -0.00000169  -0.00000043  0.99999694  1
  Ge  Ge25  1  0.50003110  0.50003383  -0.00003042  1
  Ge  Ge26  1  0.50003806  -0.00003558  0.50003514  1
  Ge  Ge27  1  0.50003766  -0.00003688  -0.00003314  1
  Ge  Ge28  1  -0.00003923  0.50003972  0.50003507  1
