# generated using pymatgen
data_H5ClO6
_symmetry_space_group_name_H-M   'P 1'
_cell_length_a   5.82619140
_cell_length_b   7.20743408
_cell_length_c   10.55782881
_cell_angle_alpha   90.00000000
_cell_angle_beta   90.00000000
_cell_angle_gamma   90.00000000
_symmetry_Int_Tables_number   1
_chemical_formula_structural   H5ClO6
_chemical_formula_sum   'H20 Cl4 O24'
_cell_volume   443.34319091
_cell_formula_units_Z   4
loop_
 _symmetry_equiv_pos_site_id
 _symmetry_equiv_pos_as_xyz
  1  'x, y, z'
loop_
 _atom_site_type_symbol
 _atom_site_label
 _atom_site_symmetry_multiplicity
 _atom_site_fract_x
 _atom_site_fract_y
 _atom_site_fract_z
 _atom_site_occupancy
  H  H0  1  0.23907070  0.79606047  0.64466198  1
  H  H1  1  0.25524072  0.74731532  0.79186426  1
  H  H2  1  0.25086967  0.99292466  0.75004904  1
  H  H3  1  0.75524072  0.75268468  0.20813574  1
  H  H4  1  0.73907070  0.70393953  0.35533802  1
  H  H5  1  0.75086967  0.50707534  0.24995096  1
  H  H6  1  0.26092930  0.20393953  0.14466198  1
  H  H7  1  0.24913033  0.00707534  0.25004904  1
  H  H8  1  0.24475928  0.25268468  0.29186426  1
  H  H9  1  0.74913033  0.49292466  0.74995096  1
  H  H10  1  0.76092930  0.29606047  0.85533802  1
  H  H11  1  0.74475928  0.24731532  0.70813574  1
  H  H12  1  0.25971598  0.19785332  0.85505852  1
  H  H13  1  0.24432323  0.24437260  0.70840103  1
  H  H14  1  0.74432323  0.25562740  0.29159897  1
  H  H15  1  0.75971598  0.30214668  0.14494148  1
  H  H16  1  0.24028402  0.80214668  0.35505852  1
  H  H17  1  0.25567677  0.75562740  0.20840103  1
  H  H18  1  0.74028402  0.69785332  0.64494148  1
  H  H19  1  0.75567677  0.74437260  0.79159897  1
  Cl  Cl20  1  0.17253582  0.50219868  0.49988646  1
  Cl  Cl21  1  0.67253582  0.99780132  0.50011354  1
  Cl  Cl22  1  0.32746418  0.49780132  0.99988646  1
  Cl  Cl23  1  0.82746418  0.00219868  0.00011354  1
  O  O24  1  0.15289510  0.70584080  0.50060954  1
  O  O25  1  0.65289510  0.79415920  0.49939046  1
  O  O26  1  0.34710490  0.29415920  0.00060954  1
  O  O27  1  0.84710490  0.20584080  0.99939046  1
  O  O28  1  0.94811004  0.42180215  0.49919631  1
  O  O29  1  0.44811004  0.07819785  0.50080369  1
  O  O30  1  0.55188996  0.57819785  0.99919631  1
  O  O31  1  0.05188996  0.92180215  0.00080369  1
  O  O32  1  0.29746893  0.44894258  0.61200515  1
  O  O33  1  0.79746893  0.05105742  0.38799485  1
  O  O34  1  0.20253107  0.55105742  0.11200515  1
  O  O35  1  0.70253107  0.94894258  0.88799485  1
  O  O36  1  0.20179076  0.54896812  0.88736798  1
  O  O37  1  0.70179076  0.95103188  0.11263202  1
  O  O38  1  0.29820924  0.45103188  0.38736798  1
  O  O39  1  0.79820924  0.04896812  0.61263202  1
  O  O40  1  0.30025910  0.83812667  0.72695497  1
  O  O41  1  0.80025910  0.66187333  0.27304503  1
  O  O42  1  0.19974090  0.16187333  0.22695497  1
  O  O43  1  0.69974090  0.33812667  0.77304503  1
  O  O44  1  0.19959759  0.15404741  0.77330691  1
  O  O45  1  0.69959759  0.34595259  0.22669309  1
  O  O46  1  0.30040241  0.84595259  0.27330691  1
  O  O47  1  0.80040241  0.65404741  0.72669309  1
