# generated using pymatgen
data_Sc2Te3
_symmetry_space_group_name_H-M   'P 1'
_cell_length_a   7.18896647
_cell_length_b   7.18985404
_cell_length_c   13.84794188
_cell_angle_alpha   94.93155029
_cell_angle_beta   94.98729844
_cell_angle_gamma   119.98844991
_symmetry_Int_Tables_number   1
_chemical_formula_structural   Sc2Te3
_chemical_formula_sum   'Sc8 Te12'
_cell_volume   610.61105709
_cell_formula_units_Z   4
loop_
 _symmetry_equiv_pos_site_id
 _symmetry_equiv_pos_as_xyz
  1  'x, y, z'
loop_
 _atom_site_type_symbol
 _atom_site_label
 _atom_site_symmetry_multiplicity
 _atom_site_fract_x
 _atom_site_fract_y
 _atom_site_fract_z
 _atom_site_occupancy
  Sc  Sc0  1  0.00000000  0.00000000  0.00000000  1
  Sc  Sc1  1  0.67056525  0.33535142  -0.00005806  1
  Sc  Sc2  1  0.32943475  0.66464858  0.00005806  1
  Sc  Sc3  1  0.08251904  0.74949363  0.24641704  1
  Sc  Sc4  1  0.16977452  0.83615321  0.50885162  1
  Sc  Sc5  1  0.83022548  0.16384679  0.49114838  1
  Sc  Sc6  1  0.91748096  0.25050637  0.75358296  1
  Sc  Sc7  1  0.50000000  0.50000000  0.50000000  1
  Te  Te8  1  0.13111743  0.12101785  0.37599437  1
  Te  Te9  1  0.29037280  0.29157389  0.87610978  1
  Te  Te10  1  0.79680799  0.46907323  0.37583023  1
  Te  Te11  1  0.95853141  0.62419047  0.87431044  1
  Te  Te12  1  0.44899475  0.78632915  0.37590113  1
  Te  Te13  1  0.62611615  0.95967817  0.87616629  1
  Te  Te14  1  0.37388385  0.04032183  0.12383371  1
  Te  Te15  1  0.55100525  0.21367085  0.62409887  1
  Te  Te16  1  0.04146859  0.37580953  0.12568956  1
  Te  Te17  1  0.20319201  0.53092677  0.62416977  1
  Te  Te18  1  0.70962720  0.70842611  0.12389022  1
  Te  Te19  1  0.86888257  0.87898215  0.62400563  1
