# generated using pymatgen
data_SF6
_symmetry_space_group_name_H-M   'P 1'
_cell_length_a   4.71060909
_cell_length_b   7.87548580
_cell_length_c   8.01202912
_cell_angle_alpha   61.53067427
_cell_angle_beta   85.17943982
_cell_angle_gamma   85.46396338
_symmetry_Int_Tables_number   1
_chemical_formula_structural   SF6
_chemical_formula_sum   'S3 F18'
_cell_volume   260.10650067
_cell_formula_units_Z   3
loop_
 _symmetry_equiv_pos_site_id
 _symmetry_equiv_pos_as_xyz
  1  'x, y, z'
loop_
 _atom_site_type_symbol
 _atom_site_label
 _atom_site_symmetry_multiplicity
 _atom_site_fract_x
 _atom_site_fract_y
 _atom_site_fract_z
 _atom_site_occupancy
  S  S0  1  0.00000000  -0.00000000  0.00000000  1
  S  S1  1  0.41338860  0.66647762  0.66973712  1
  S  S2  1  0.58661140  0.33352238  0.33026288  1
  F  F3  1  0.12284519  0.90887129  0.20366293  1
  F  F4  1  0.87715481  0.09112871  0.79633707  1
  F  F5  1  0.87554968  0.79960286  0.05165016  1
  F  F6  1  0.12445032  0.20039714  0.94834984  1
  F  F7  1  0.71289753  0.05977657  0.07869289  1
  F  F8  1  0.28710247  0.94022343  0.92130711  1
  F  F9  1  0.23695856  0.58959883  0.86637823  1
  F  F10  1  0.76304144  0.41040117  0.13362177  1
  F  F11  1  0.58984170  0.74344306  0.47310240  1
  F  F12  1  0.41015830  0.25655694  0.52689760  1
  F  F13  1  0.18973939  0.58369889  0.59448421  1
  F  F14  1  0.81026061  0.41630111  0.40551579  1
  F  F15  1  0.63710635  0.74928031  0.74494178  1
  F  F16  1  0.36289365  0.25071969  0.25505822  1
  F  F17  1  0.23399627  0.86457776  0.59247663  1
  F  F18  1  0.76600373  0.13542224  0.40752337  1
  F  F19  1  0.59252122  0.46825168  0.74704231  1
  F  F20  1  0.40747878  0.53174832  0.25295769  1
