# generated using pymatgen
data_NaHCO3
_symmetry_space_group_name_H-M   'P 1'
_cell_length_a   9.65734666
_cell_length_b   3.40455867
_cell_length_c   7.89889495
_cell_angle_alpha   68.77422719
_cell_angle_beta   90.00000000
_cell_angle_gamma   90.00000000
_symmetry_Int_Tables_number   1
_chemical_formula_structural   NaHCO3
_chemical_formula_sum   'Na4 H4 C4 O12'
_cell_volume   242.08948672
_cell_formula_units_Z   4
loop_
 _symmetry_equiv_pos_site_id
 _symmetry_equiv_pos_as_xyz
  1  'x, y, z'
loop_
 _atom_site_type_symbol
 _atom_site_label
 _atom_site_symmetry_multiplicity
 _atom_site_fract_x
 _atom_site_fract_y
 _atom_site_fract_z
 _atom_site_occupancy
  Na  Na0  1  0.50454971  0.57764179  0.21258915  1
  Na  Na1  1  0.00454971  0.42235821  0.28741085  1
  Na  Na2  1  0.49545029  0.42235821  0.78741085  1
  Na  Na3  1  0.99545029  0.57764179  0.71258915  1
  H  H4  1  0.74089141  0.30803106  0.65162262  1
  H  H5  1  0.24089141  0.69196894  0.84837738  1
  H  H6  1  0.25910859  0.69196894  0.34837738  1
  H  H7  1  0.75910859  0.30803106  0.15162262  1
  C  C8  1  0.73841393  0.78658830  0.42387062  1
  C  C9  1  0.23841393  0.21341170  0.07612938  1
  C  C10  1  0.26158607  0.21341170  0.57612938  1
  C  C11  1  0.76158607  0.78658830  0.92387062  1
  O  O12  1  0.86869740  0.80635405  0.42876562  1
  O  O13  1  0.36869740  0.19364595  0.07123438  1
  O  O14  1  0.13130260  0.19364595  0.57123438  1
  O  O15  1  0.63130260  0.80635405  0.92876562  1
  O  O16  1  0.66259112  0.01629045  0.29342967  1
  O  O17  1  0.16259112  0.98370955  0.20657033  1
  O  O18  1  0.33740888  0.98370955  0.70657033  1
  O  O19  1  0.83740888  0.01629045  0.79342967  1
  O  O20  1  0.67073720  0.50159938  0.56227911  1
  O  O21  1  0.17073720  0.49840062  0.93772089  1
  O  O22  1  0.32926280  0.49840062  0.43772089  1
  O  O23  1  0.82926280  0.50159938  0.06227911  1
