# generated using pymatgen
data_BaSb2
_symmetry_space_group_name_H-M   'P 1'
_cell_length_a   4.43889715
_cell_length_b   5.22705032
_cell_length_c   9.64215577
_cell_angle_alpha   101.16969485
_cell_angle_beta   90.00000000
_cell_angle_gamma   90.00000000
_symmetry_Int_Tables_number   1
_chemical_formula_structural   BaSb2
_chemical_formula_sum   'Ba2 Sb4'
_cell_volume   219.48279457
_cell_formula_units_Z   2
loop_
 _symmetry_equiv_pos_site_id
 _symmetry_equiv_pos_as_xyz
  1  'x, y, z'
loop_
 _atom_site_type_symbol
 _atom_site_label
 _atom_site_symmetry_multiplicity
 _atom_site_fract_x
 _atom_site_fract_y
 _atom_site_fract_z
 _atom_site_occupancy
  Ba  Ba0  1  0.25000000  0.41621872  0.28304938  1
  Ba  Ba1  1  0.75000000  0.58378128  0.71695062  1
  Sb  Sb2  1  0.25000000  0.04168540  0.60073694  1
  Sb  Sb3  1  0.75000000  0.95831460  0.39926306  1
  Sb  Sb4  1  0.25000000  0.83160660  0.02150091  1
  Sb  Sb5  1  0.75000000  0.16839340  0.97849909  1
