# generated using pymatgen
data_U2InRh2
_symmetry_space_group_name_H-M   'P 1'
_cell_length_a   7.64290944
_cell_length_b   7.64290944
_cell_length_c   3.60452431
_cell_angle_alpha   90.00000000
_cell_angle_beta   90.00000000
_cell_angle_gamma   89.99280342
_symmetry_Int_Tables_number   1
_chemical_formula_structural   U2InRh2
_chemical_formula_sum   'U4 In2 Rh4'
_cell_volume   210.55491435
_cell_formula_units_Z   2
loop_
 _symmetry_equiv_pos_site_id
 _symmetry_equiv_pos_as_xyz
  1  'x, y, z'
loop_
 _atom_site_type_symbol
 _atom_site_label
 _atom_site_symmetry_multiplicity
 _atom_site_fract_x
 _atom_site_fract_y
 _atom_site_fract_z
 _atom_site_occupancy
  U  U0  1  0.16791077  0.33208923  0.50000000  1
  U  U1  1  0.66793063  0.16793063  0.50000000  1
  U  U2  1  0.33206937  0.83206937  0.50000000  1
  U  U3  1  0.83208923  0.66791077  0.50000000  1
  In  In4  1  0.50000000  0.50000000  -0.00000000  1
  In  In5  1  -0.00000000  -0.00000000  -0.00000000  1
  Rh  Rh6  1  0.36023954  0.13976046  -0.00000000  1
  Rh  Rh7  1  0.63976046  0.86023954  -0.00000000  1
  Rh  Rh8  1  0.86026558  0.36026558  0.00000000  1
  Rh  Rh9  1  0.13973442  0.63973442  0.00000000  1
