# generated using pymatgen
data_KRb2ScF6
_symmetry_space_group_name_H-M   'P 1'
_cell_length_a   6.36910267
_cell_length_b   6.30725938
_cell_length_c   8.95190367
_cell_angle_alpha   90.11657196
_cell_angle_beta   90.00000000
_cell_angle_gamma   90.00000000
_symmetry_Int_Tables_number   1
_chemical_formula_structural   KRb2ScF6
_chemical_formula_sum   'K2 Rb4 Sc2 F12'
_cell_volume   359.61139308
_cell_formula_units_Z   2
loop_
 _symmetry_equiv_pos_site_id
 _symmetry_equiv_pos_as_xyz
  1  'x, y, z'
loop_
 _atom_site_type_symbol
 _atom_site_label
 _atom_site_symmetry_multiplicity
 _atom_site_fract_x
 _atom_site_fract_y
 _atom_site_fract_z
 _atom_site_occupancy
  K  K0  1  -0.00000000  -0.00000000  0.50000000  1
  K  K1  1  0.50000000  0.50000000  -0.00000000  1
  Rb  Rb2  1  0.53361533  0.99320711  0.74987802  1
  Rb  Rb3  1  0.03361533  0.50679289  0.75012198  1
  Rb  Rb4  1  0.46638467  0.00679289  0.25012198  1
  Rb  Rb5  1  0.96638467  0.49320711  0.24987802  1
  Sc  Sc6  1  0.00000000  -0.00000000  -0.00000000  1
  Sc  Sc7  1  0.50000000  0.50000000  0.50000000  1
  F  F8  1  0.24336739  0.31950778  0.46013718  1
  F  F9  1  0.74336739  0.18049222  0.03986282  1
  F  F10  1  0.75663261  0.68049222  0.53986282  1
  F  F11  1  0.25663261  0.81950778  0.96013718  1
  F  F12  1  0.31538862  0.75662727  0.53248842  1
  F  F13  1  0.81538862  0.74337273  0.96751158  1
  F  F14  1  0.68461138  0.24337273  0.46751158  1
  F  F15  1  0.18461138  0.25662727  0.03248842  1
  F  F16  1  0.02273853  0.93176100  0.21978191  1
  F  F17  1  0.52273853  0.56823900  0.28021809  1
  F  F18  1  0.97726147  0.06823900  0.78021809  1
  F  F19  1  0.47726147  0.43176100  0.71978191  1
