# generated using pymatgen
data_Cs3NaPb4
_symmetry_space_group_name_H-M   'P 1'
_cell_length_a   9.51323766
_cell_length_b   9.51323766
_cell_length_c   11.13758083
_cell_angle_alpha   90.00000000
_cell_angle_beta   90.00000000
_cell_angle_gamma   133.78853787
_symmetry_Int_Tables_number   1
_chemical_formula_structural   Cs3NaPb4
_chemical_formula_sum   'Cs6 Na2 Pb8'
_cell_volume   727.65213600
_cell_formula_units_Z   2
loop_
 _symmetry_equiv_pos_site_id
 _symmetry_equiv_pos_as_xyz
  1  'x, y, z'
loop_
 _atom_site_type_symbol
 _atom_site_label
 _atom_site_symmetry_multiplicity
 _atom_site_fract_x
 _atom_site_fract_y
 _atom_site_fract_z
 _atom_site_occupancy
  Cs  Cs0  1  0.61165252  0.38834748  0.55407921  1
  Cs  Cs1  1  0.61165252  0.38834748  0.94592079  1
  Cs  Cs2  1  0.38834748  0.61165252  0.44592079  1
  Cs  Cs3  1  0.38834748  0.61165252  0.05407921  1
  Cs  Cs4  1  0.76513859  0.23486141  0.25000000  1
  Cs  Cs5  1  0.23486141  0.76513859  0.75000000  1
  Na  Na6  1  0.00000000  -0.00000000  0.50000000  1
  Na  Na7  1  0.00000000  -0.00000000  0.00000000  1
  Pb  Pb8  1  0.26299432  0.16848442  0.25000000  1
  Pb  Pb9  1  0.82815125  0.17184875  0.88693098  1
  Pb  Pb10  1  0.82815125  0.17184875  0.61306902  1
  Pb  Pb11  1  0.16848442  0.26299432  0.75000000  1
  Pb  Pb12  1  0.73700568  0.83151558  0.75000000  1
  Pb  Pb13  1  0.17184875  0.82815125  0.38693098  1
  Pb  Pb14  1  0.83151558  0.73700568  0.25000000  1
  Pb  Pb15  1  0.17184875  0.82815125  0.11306902  1
