# generated using pymatgen
data_CeZn3
_symmetry_space_group_name_H-M   'P 1'
_cell_length_a   4.56528605
_cell_length_b   6.53395086
_cell_length_c   10.35002772
_cell_angle_alpha   90.00000000
_cell_angle_beta   90.00000000
_cell_angle_gamma   90.00000000
_symmetry_Int_Tables_number   1
_chemical_formula_structural   CeZn3
_chemical_formula_sum   'Ce4 Zn12'
_cell_volume   308.73464814
_cell_formula_units_Z   4
loop_
 _symmetry_equiv_pos_site_id
 _symmetry_equiv_pos_as_xyz
  1  'x, y, z'
loop_
 _atom_site_type_symbol
 _atom_site_label
 _atom_site_symmetry_multiplicity
 _atom_site_fract_x
 _atom_site_fract_y
 _atom_site_fract_z
 _atom_site_occupancy
  Ce  Ce0  1  0.25000000  0.25117616  0.64954814  1
  Ce  Ce1  1  0.25000000  0.75117616  0.85045186  1
  Ce  Ce2  1  0.75000000  0.74882384  0.35045186  1
  Ce  Ce3  1  0.75000000  0.24882384  0.14954814  1
  Zn  Zn4  1  0.25000000  0.55797958  0.12984449  1
  Zn  Zn5  1  0.25000000  0.05797958  0.37015551  1
  Zn  Zn6  1  0.75000000  0.44202042  0.87015551  1
  Zn  Zn7  1  0.75000000  0.94202042  0.62984449  1
  Zn  Zn8  1  0.25000000  0.93913289  0.13123080  1
  Zn  Zn9  1  0.25000000  0.43913289  0.36876920  1
  Zn  Zn10  1  0.75000000  0.06086711  0.86876920  1
  Zn  Zn11  1  0.75000000  0.56086711  0.63123080  1
  Zn  Zn12  1  0.25000000  0.24921530  0.95226988  1
  Zn  Zn13  1  0.25000000  0.74921530  0.54773012  1
  Zn  Zn14  1  0.75000000  0.75078470  0.04773012  1
  Zn  Zn15  1  0.75000000  0.25078470  0.45226988  1
