# generated using pymatgen
data_La5In3Br
_symmetry_space_group_name_H-M   'P 1'
_cell_length_a   9.81208485
_cell_length_b   9.81220824
_cell_length_c   6.94584090
_cell_angle_alpha   90.00058756
_cell_angle_beta   90.00063898
_cell_angle_gamma   119.99959527
_symmetry_Int_Tables_number   1
_chemical_formula_structural   La5In3Br
_chemical_formula_sum   'La10 In6 Br2'
_cell_volume   579.14229869
_cell_formula_units_Z   2
loop_
 _symmetry_equiv_pos_site_id
 _symmetry_equiv_pos_as_xyz
  1  'x, y, z'
loop_
 _atom_site_type_symbol
 _atom_site_label
 _atom_site_symmetry_multiplicity
 _atom_site_fract_x
 _atom_site_fract_y
 _atom_site_fract_z
 _atom_site_occupancy
  La  La0  1  0.73339014  0.73335972  0.24995471  1
  La  La1  1  -0.00001828  0.73334994  0.75001180  1
  La  La2  1  0.73337572  0.00001834  0.75001262  1
  La  La3  1  0.33330460  0.66667482  0.49994267  1
  La  La4  1  0.26663314  0.26663486  0.75000855  1
  La  La5  1  0.00001853  0.26663852  0.24999138  1
  La  La6  1  0.66669105  0.33334077  0.49993544  1
  La  La7  1  0.26661504  0.99998373  0.24999055  1
  La  La8  1  0.33330353  0.66667381  0.00006101  1
  La  La9  1  0.66669035  0.33334070  0.00007038  1
  In  In10  1  0.38943289  0.99993580  0.75000922  1
  In  In11  1  0.00005747  0.61055012  0.25000156  1
  In  In12  1  0.61048239  0.99994856  0.25000614  1
  In  In13  1  0.00006366  0.38953119  0.75000273  1
  In  In14  1  0.38946067  0.38950549  0.25000176  1
  In  In15  1  0.61047935  0.61053005  0.74999687  1
  Br  Br16  1  0.00000656  0.99998876  0.49998710  1
  Br  Br17  1  0.00001520  0.99999783  0.00001650  1
