# generated using pymatgen
data_Ba2InRuO6
_symmetry_space_group_name_H-M   'P 1'
_cell_length_a   5.88157658
_cell_length_b   5.88157658
_cell_length_c   14.54382178
_cell_angle_alpha   90.00000000
_cell_angle_beta   90.00000000
_cell_angle_gamma   120.00000138
_symmetry_Int_Tables_number   1
_chemical_formula_structural   Ba2InRuO6
_chemical_formula_sum   'Ba6 In3 Ru3 O18'
_cell_volume   435.70915186
_cell_formula_units_Z   3
loop_
 _symmetry_equiv_pos_site_id
 _symmetry_equiv_pos_as_xyz
  1  'x, y, z'
loop_
 _atom_site_type_symbol
 _atom_site_label
 _atom_site_symmetry_multiplicity
 _atom_site_fract_x
 _atom_site_fract_y
 _atom_site_fract_z
 _atom_site_occupancy
  Ba  Ba0  1  0.66666700  0.33333300  0.90596132  1
  Ba  Ba1  1  0.00000000  -0.00000000  0.24739857  1
  Ba  Ba2  1  0.00000000  -0.00000000  0.75260143  1
  Ba  Ba3  1  0.66666700  0.33333300  0.59780791  1
  Ba  Ba4  1  0.33333300  0.66666700  0.40219209  1
  Ba  Ba5  1  0.33333300  0.66666700  0.09403868  1
  In  In6  1  0.66666700  0.33333300  0.34879451  1
  In  In7  1  0.00000000  -0.00000000  -0.00000000  1
  In  In8  1  0.33333300  0.66666700  0.65120549  1
  Ru  Ru9  1  0.33333300  0.66666700  0.84307188  1
  Ru  Ru10  1  0.66666700  0.33333300  0.15692812  1
  Ru  Ru11  1  0.00000000  -0.00000000  0.50000000  1
  O  O12  1  0.84386810  0.15613190  0.42244140  1
  O  O13  1  0.17306503  0.34613007  0.91563902  1
  O  O14  1  0.84386810  0.68773519  0.42244140  1
  O  O15  1  0.31226481  0.15613190  0.42244140  1
  O  O16  1  0.15613190  0.84386810  0.57755860  1
  O  O17  1  0.82693497  0.65386993  0.08436098  1
  O  O18  1  0.34613007  0.17306503  0.08436098  1
  O  O19  1  0.17306503  0.82693497  0.91563902  1
  O  O20  1  0.51335614  0.02671227  0.24278075  1
  O  O21  1  0.48664386  0.97328773  0.75721925  1
  O  O22  1  0.65386993  0.82693497  0.91563902  1
  O  O23  1  0.15613190  0.31226481  0.57755860  1
  O  O24  1  0.48664386  0.51335614  0.75721925  1
  O  O25  1  0.02671227  0.51335614  0.75721925  1
  O  O26  1  0.68773519  0.84386810  0.57755860  1
  O  O27  1  0.97328773  0.48664386  0.24278075  1
  O  O28  1  0.82693497  0.17306503  0.08436098  1
  O  O29  1  0.51335614  0.48664386  0.24278075  1
