# generated using pymatgen
data_In4Te3
_symmetry_space_group_name_H-M   'P 1'
_cell_length_a   4.47252729
_cell_length_b   12.97434307
_cell_length_c   16.00884520
_cell_angle_alpha   90.00000000
_cell_angle_beta   90.00000000
_cell_angle_gamma   90.00000000
_symmetry_Int_Tables_number   1
_chemical_formula_structural   In4Te3
_chemical_formula_sum   'In16 Te12'
_cell_volume   928.96292539
_cell_formula_units_Z   4
loop_
 _symmetry_equiv_pos_site_id
 _symmetry_equiv_pos_as_xyz
  1  'x, y, z'
loop_
 _atom_site_type_symbol
 _atom_site_label
 _atom_site_symmetry_multiplicity
 _atom_site_fract_x
 _atom_site_fract_y
 _atom_site_fract_z
 _atom_site_occupancy
  In  In0  1  -0.00000000  0.65408395  0.28502810  1
  In  In1  1  -0.00000000  0.34591605  0.71497190  1
  In  In2  1  0.00000000  0.47308402  0.18641266  1
  In  In3  1  0.00000000  0.60808755  0.57216913  1
  In  In4  1  0.50000000  0.15408395  0.21497190  1
  In  In5  1  0.50000000  0.89191245  0.07216913  1
  In  In6  1  -0.00000000  0.35436309  0.04016753  1
  In  In7  1  0.50000000  0.84591605  0.78502810  1
  In  In8  1  0.50000000  0.14563691  0.54016753  1
  In  In9  1  0.00000000  0.52691598  0.81358734  1
  In  In10  1  0.50000000  0.85436309  0.45983247  1
  In  In11  1  0.00000000  0.64563691  0.95983247  1
  In  In12  1  0.50000000  0.10808755  0.92783087  1
  In  In13  1  0.50000000  0.97308402  0.31358734  1
  In  In14  1  0.50000000  0.02691598  0.68641266  1
  In  In15  1  -0.00000000  0.39191245  0.42783087  1
  Te  Te16  1  0.50000000  0.35208128  0.92873266  1
  Te  Te17  1  0.00000000  0.86086126  0.22457512  1
  Te  Te18  1  -0.00000000  0.85208128  0.57126734  1
  Te  Te19  1  0.00000000  0.14198965  0.09857517  1
  Te  Te20  1  0.00000000  0.13913874  0.77542488  1
  Te  Te21  1  0.50000000  0.64791872  0.07126734  1
  Te  Te22  1  0.50000000  0.36086126  0.27542488  1
  Te  Te23  1  0.50000000  0.64198965  0.40142483  1
  Te  Te24  1  0.00000000  0.85801035  0.90142383  1
  Te  Te25  1  0.00000000  0.14791872  0.42873266  1
  Te  Te26  1  0.50000000  0.35801035  0.59857617  1
  Te  Te27  1  0.50000000  0.63913874  0.72457512  1
