# generated using pymatgen
data_Sm(BC)2
_symmetry_space_group_name_H-M   'P 1'
_cell_length_a   3.73550848
_cell_length_b   5.36208568
_cell_length_c   5.36208568
_cell_angle_alpha   90.00000000
_cell_angle_beta   90.00000000
_cell_angle_gamma   90.00000000
_symmetry_Int_Tables_number   1
_chemical_formula_structural   Sm(BC)2
_chemical_formula_sum   'Sm2 B4 C4'
_cell_volume   107.40320100
_cell_formula_units_Z   2
loop_
 _symmetry_equiv_pos_site_id
 _symmetry_equiv_pos_as_xyz
  1  'x, y, z'
loop_
 _atom_site_type_symbol
 _atom_site_label
 _atom_site_symmetry_multiplicity
 _atom_site_fract_x
 _atom_site_fract_y
 _atom_site_fract_z
 _atom_site_occupancy
  Sm  Sm0  1  -0.00000000  0.50000000  0.50000000  1
  Sm  Sm1  1  -0.00000000  0.00000000  0.00000000  1
  B  B2  1  0.50000000  0.63715534  0.13715534  1
  B  B3  1  0.50000000  0.86284466  0.63715534  1
  B  B4  1  0.50000000  0.13715534  0.36284466  1
  B  B5  1  0.50000000  0.36284466  0.86284466  1
  C  C6  1  0.50000000  0.66150823  0.83849177  1
  C  C7  1  0.50000000  0.83849177  0.33849177  1
  C  C8  1  0.50000000  0.33849177  0.16150823  1
  C  C9  1  0.50000000  0.16150823  0.66150823  1
