# generated using pymatgen
data_Er2Ga10Os3
_symmetry_space_group_name_H-M   'P 1'
_cell_length_a   8.80652877
_cell_length_b   8.80652877
_cell_length_c   6.35215335
_cell_angle_alpha   90.00000000
_cell_angle_beta   90.00000000
_cell_angle_gamma   90.00000000
_symmetry_Int_Tables_number   1
_chemical_formula_structural   Er2Ga10Os3
_chemical_formula_sum   'Er4 Ga20 Os6'
_cell_volume   492.64092895
_cell_formula_units_Z   2
loop_
 _symmetry_equiv_pos_site_id
 _symmetry_equiv_pos_as_xyz
  1  'x, y, z'
loop_
 _atom_site_type_symbol
 _atom_site_label
 _atom_site_symmetry_multiplicity
 _atom_site_fract_x
 _atom_site_fract_y
 _atom_site_fract_z
 _atom_site_occupancy
  Er  Er0  1  0.68273888  0.18273888  0.00000000  1
  Er  Er1  1  0.31726112  0.81726112  0.00000000  1
  Er  Er2  1  0.81726112  0.68273888  0.00000000  1
  Er  Er3  1  0.18273888  0.31726112  0.00000000  1
  Ga  Ga4  1  0.93895764  0.20694747  0.29320589  1
  Ga  Ga5  1  0.70694747  0.43895764  0.29320589  1
  Ga  Ga6  1  0.50000000  -0.00000000  0.28402053  1
  Ga  Ga7  1  0.56104236  0.70694747  0.70679411  1
  Ga  Ga8  1  0.29305253  0.56104236  0.70679411  1
  Ga  Ga9  1  0.79305253  0.93895764  0.29320589  1
  Ga  Ga10  1  0.93895764  0.20694747  0.70679411  1
  Ga  Ga11  1  0.29305253  0.56104236  0.29320589  1
  Ga  Ga12  1  0.06104236  0.79305253  0.29320589  1
  Ga  Ga13  1  0.70694747  0.43895764  0.70679411  1
  Ga  Ga14  1  0.43895764  0.29305253  0.70679411  1
  Ga  Ga15  1  0.06104236  0.79305253  0.70679411  1
  Ga  Ga16  1  0.20694747  0.06104236  0.70679411  1
  Ga  Ga17  1  0.79305253  0.93895764  0.70679411  1
  Ga  Ga18  1  0.20694747  0.06104236  0.29320589  1
  Ga  Ga19  1  -0.00000000  0.50000000  0.71597947  1
  Ga  Ga20  1  -0.00000000  0.50000000  0.28402053  1
  Ga  Ga21  1  0.56104236  0.70694747  0.29320589  1
  Ga  Ga22  1  0.43895764  0.29305253  0.29320589  1
  Ga  Ga23  1  0.50000000  -0.00000000  0.71597947  1
  Os  Os24  1  0.67869462  0.17869462  0.50000000  1
  Os  Os25  1  0.82130538  0.67869462  0.50000000  1
  Os  Os26  1  0.17869462  0.32130538  0.50000000  1
  Os  Os27  1  -0.00000000  -0.00000000  0.00000000  1
  Os  Os28  1  0.32130538  0.82130538  0.50000000  1
  Os  Os29  1  0.50000000  0.50000000  0.00000000  1
