# generated using pymatgen
data_Mg2CoH5
_symmetry_space_group_name_H-M   'P 1'
_cell_length_a   4.41115151
_cell_length_b   4.41115151
_cell_length_c   6.53277552
_cell_angle_alpha   90.00000000
_cell_angle_beta   90.00000000
_cell_angle_gamma   90.00000000
_symmetry_Int_Tables_number   1
_chemical_formula_structural   Mg2CoH5
_chemical_formula_sum   'Mg4 Co2 H10'
_cell_volume   127.11642920
_cell_formula_units_Z   2
loop_
 _symmetry_equiv_pos_site_id
 _symmetry_equiv_pos_as_xyz
  1  'x, y, z'
loop_
 _atom_site_type_symbol
 _atom_site_label
 _atom_site_symmetry_multiplicity
 _atom_site_fract_x
 _atom_site_fract_y
 _atom_site_fract_z
 _atom_site_occupancy
  Mg  Mg0  1  0.75000000  0.25000000  0.00000000  1
  Mg  Mg1  1  0.25000000  0.75000000  0.00000000  1
  Mg  Mg2  1  0.75000000  0.25000000  0.50000000  1
  Mg  Mg3  1  0.25000000  0.75000000  0.50000000  1
  Co  Co4  1  0.75000000  0.75000000  0.74229176  1
  Co  Co5  1  0.25000000  0.25000000  0.25770824  1
  H  H6  1  0.75000000  0.75000000  0.50563026  1
  H  H7  1  0.25000000  0.25000000  0.49436974  1
  H  H8  1  0.99111482  0.99111482  0.77053779  1
  H  H9  1  0.50888518  0.99111482  0.77053779  1
  H  H10  1  0.99111482  0.50888518  0.77053779  1
  H  H11  1  0.50888518  0.50888518  0.77053779  1
  H  H12  1  0.00888518  0.00888518  0.22946221  1
  H  H13  1  0.49111482  0.00888518  0.22946221  1
  H  H14  1  0.00888518  0.49111482  0.22946221  1
  H  H15  1  0.49111482  0.49111482  0.22946221  1
