# generated using pymatgen
data_H10C2N2O5
_symmetry_space_group_name_H-M   'P 1'
_cell_length_a   3.67682546
_cell_length_b   7.96239630
_cell_length_c   10.27840433
_cell_angle_alpha   90.00000000
_cell_angle_beta   90.00000000
_cell_angle_gamma   90.00000000
_symmetry_Int_Tables_number   1
_chemical_formula_structural   H10C2N2O5
_chemical_formula_sum   'H20 C4 N4 O10'
_cell_volume   300.91407490
_cell_formula_units_Z   2
loop_
 _symmetry_equiv_pos_site_id
 _symmetry_equiv_pos_as_xyz
  1  'x, y, z'
loop_
 _atom_site_type_symbol
 _atom_site_label
 _atom_site_symmetry_multiplicity
 _atom_site_fract_x
 _atom_site_fract_y
 _atom_site_fract_z
 _atom_site_occupancy
  H  H0  1  0.43214604  0.06309410  0.64387006  1
  H  H1  1  0.43214604  0.93690590  0.35612994  1
  H  H2  1  0.56785396  0.56309410  0.85612994  1
  H  H3  1  0.56785396  0.43690590  0.14387006  1
  H  H4  1  0.73505260  0.01934526  0.76641843  1
  H  H5  1  0.73505260  0.98065474  0.23358157  1
  H  H6  1  0.26494740  0.51934526  0.73358157  1
  H  H7  1  0.26494740  0.48065474  0.26641843  1
  H  H8  1  0.38481948  0.14785672  0.79458636  1
  H  H9  1  0.38481948  0.85214328  0.20541364  1
  H  H10  1  0.61518052  0.64785672  0.70541364  1
  H  H11  1  0.61518052  0.35214328  0.29458636  1
  H  H12  1  0.73015062  0.21016328  0.69618864  1
  H  H13  1  0.73015062  0.78983672  0.30381136  1
  H  H14  1  0.26984938  0.71016328  0.80381136  1
  H  H15  1  0.26984938  0.28983672  0.19618864  1
  H  H16  1  0.02911501  0.09847399  0.47977472  1
  H  H17  1  0.02911501  0.90152601  0.52022528  1
  H  H18  1  0.97088499  0.59847399  0.02022528  1
  H  H19  1  0.97088499  0.40152601  0.97977472  1
  C  C20  1  0.93442827  0.40652639  0.52253342  1
  C  C21  1  0.93442827  0.59347361  0.47746658  1
  C  C22  1  0.06557173  0.90652639  0.97746658  1
  C  C23  1  0.06557173  0.09347361  0.02253342  1
  N  N24  1  0.56917238  0.10960954  0.72431843  1
  N  N25  1  0.56917238  0.89039046  0.27568157  1
  N  N26  1  0.43082762  0.60960954  0.77568157  1
  N  N27  1  0.43082762  0.39039046  0.22431843  1
  O  O28  1  0.86505246  0.29626065  0.43802957  1
  O  O29  1  0.86505246  0.70373935  0.56197043  1
  O  O30  1  0.13494754  0.79626065  0.06197043  1
  O  O31  1  0.13494754  0.20373935  0.93802957  1
  O  O32  1  0.00153268  0.37829223  0.64107444  1
  O  O33  1  0.00153268  0.62170777  0.35892556  1
  O  O34  1  0.99846732  0.87829223  0.85892556  1
  O  O35  1  0.99846732  0.12170777  0.14107444  1
  O  O36  1  0.18258796  0.00000000  0.50000000  1
  O  O37  1  0.81741204  0.50000000  0.00000000  1
