# generated using pymatgen
data_Na2Ca(SO4)2
_symmetry_space_group_name_H-M   'P 1'
_cell_length_a   6.48935233
_cell_length_b   6.48935233
_cell_length_c   8.44104502
_cell_angle_alpha   73.77269541
_cell_angle_beta   73.77269541
_cell_angle_gamma   79.03322678
_symmetry_Int_Tables_number   1
_chemical_formula_structural   Na2Ca(SO4)2
_chemical_formula_sum   'Na4 Ca2 S4 O16'
_cell_volume   325.27396853
_cell_formula_units_Z   2
loop_
 _symmetry_equiv_pos_site_id
 _symmetry_equiv_pos_as_xyz
  1  'x, y, z'
loop_
 _atom_site_type_symbol
 _atom_site_label
 _atom_site_symmetry_multiplicity
 _atom_site_fract_x
 _atom_site_fract_y
 _atom_site_fract_z
 _atom_site_occupancy
  Na  Na0  1  0.58705930  0.69234793  0.56517188  1
  Na  Na1  1  0.41294070  0.30765207  0.43482812  1
  Na  Na2  1  0.30765207  0.41294070  0.93482812  1
  Na  Na3  1  0.69234793  0.58705930  0.06517188  1
  Ca  Ca4  1  0.06019961  0.93980039  0.25000000  1
  Ca  Ca5  1  0.93980039  0.06019961  0.75000000  1
  S  S6  1  0.59952665  0.02994141  0.18921576  1
  S  S7  1  0.40047335  0.97005859  0.81078424  1
  S  S8  1  0.97005859  0.40047335  0.31078424  1
  S  S9  1  0.02994141  0.59952665  0.68921576  1
  O  O10  1  0.48558232  0.74154251  0.86727434  1
  O  O11  1  0.25845749  0.51441768  0.63272566  1
  O  O12  1  0.51441768  0.25845749  0.13272566  1
  O  O13  1  0.74154251  0.48558232  0.36727434  1
  O  O14  1  0.32788389  0.99620136  0.65374443  1
  O  O15  1  0.00379864  0.67211611  0.84625557  1
  O  O16  1  0.67211611  0.00379864  0.34625557  1
  O  O17  1  0.99620136  0.32788389  0.15374443  1
  O  O18  1  0.56752361  0.11265852  0.77577017  1
  O  O19  1  0.88734148  0.43247639  0.72422983  1
  O  O20  1  0.03809246  0.20988076  0.43770273  1
  O  O21  1  0.79011924  0.96190754  0.06229727  1
  O  O22  1  0.96190754  0.79011924  0.56229727  1
  O  O23  1  0.20988076  0.03809246  0.93770273  1
  O  O24  1  0.11265852  0.56752361  0.27577017  1
  O  O25  1  0.43247639  0.88734148  0.22422983  1
