# generated using pymatgen
data_H5NO
_symmetry_space_group_name_H-M   'P 1'
_cell_length_a   4.42497825
_cell_length_b   5.57805571
_cell_length_c   9.22797187
_cell_angle_alpha   90.00000000
_cell_angle_beta   90.00000000
_cell_angle_gamma   90.00000000
_symmetry_Int_Tables_number   1
_chemical_formula_structural   H5NO
_chemical_formula_sum   'H20 N4 O4'
_cell_volume   227.77195527
_cell_formula_units_Z   4
loop_
 _symmetry_equiv_pos_site_id
 _symmetry_equiv_pos_as_xyz
  1  'x, y, z'
loop_
 _atom_site_type_symbol
 _atom_site_label
 _atom_site_symmetry_multiplicity
 _atom_site_fract_x
 _atom_site_fract_y
 _atom_site_fract_z
 _atom_site_occupancy
  H  H0  1  0.75827116  0.71183054  0.33052457  1
  H  H1  1  0.58703442  0.72877531  0.48385799  1
  H  H2  1  0.45025760  0.37930696  0.36816014  1
  H  H3  1  0.76652997  0.36544601  0.58888337  1
  H  H4  1  0.08295565  0.38326658  0.37775792  1
  H  H5  1  0.74172884  0.28816946  0.83052457  1
  H  H6  1  0.91296558  0.27122469  0.98385799  1
  H  H7  1  0.41704435  0.61673342  0.87775792  1
  H  H8  1  0.73347003  0.63455399  0.08888337  1
  H  H9  1  0.04974240  0.62069304  0.86816014  1
  H  H10  1  0.08703442  0.77122469  0.51614201  1
  H  H11  1  0.25827116  0.78816946  0.66947543  1
  H  H12  1  0.95025760  0.12069304  0.63183986  1
  H  H13  1  0.26652997  0.13455399  0.41111663  1
  H  H14  1  0.58295565  0.11673342  0.62224208  1
  H  H15  1  0.24172884  0.21183054  0.16947543  1
  H  H16  1  0.41296558  0.22877531  0.01614201  1
  H  H17  1  0.54974240  0.87930696  0.13183986  1
  H  H18  1  0.91704435  0.88326658  0.12224208  1
  H  H19  1  0.23347003  0.86544601  0.91111663  1
  N  N20  1  0.73841438  0.78135569  0.15453391  1
  N  N21  1  0.76158562  0.21864431  0.65453391  1
  N  N22  1  0.23841438  0.71864431  0.84546609  1
  N  N23  1  0.26158562  0.28135569  0.34546609  1
  O  O24  1  0.76939307  0.66144689  0.43632309  1
  O  O25  1  0.73060693  0.33855311  0.93632309  1
  O  O26  1  0.26939307  0.83855311  0.56367691  1
  O  O27  1  0.23060693  0.16144689  0.06367691  1
