# generated using pymatgen
data_CaMg(CO3)2
_symmetry_space_group_name_H-M   'P 1'
_cell_length_a   5.99360564
_cell_length_b   5.99360564
_cell_length_c   5.99360519
_cell_angle_alpha   47.38753440
_cell_angle_beta   47.38753440
_cell_angle_gamma   47.38753763
_symmetry_Int_Tables_number   1
_chemical_formula_structural   CaMg(CO3)2
_chemical_formula_sum   'Ca1 Mg1 C2 O6'
_cell_volume   106.69113680
_cell_formula_units_Z   1
loop_
 _symmetry_equiv_pos_site_id
 _symmetry_equiv_pos_as_xyz
  1  'x, y, z'
loop_
 _atom_site_type_symbol
 _atom_site_label
 _atom_site_symmetry_multiplicity
 _atom_site_fract_x
 _atom_site_fract_y
 _atom_site_fract_z
 _atom_site_occupancy
  Ca  Ca0  1  0.00000000  0.00000000  0.00000000  1
  Mg  Mg1  1  0.50000000  0.50000000  0.50000000  1
  C  C2  1  0.24257952  0.24257952  0.24257952  1
  C  C3  1  0.75742048  0.75742048  0.75742048  1
  O  O4  1  0.27814640  0.49243491  0.96042136  1
  O  O5  1  0.96042136  0.27814640  0.49243491  1
  O  O6  1  0.49243491  0.96042136  0.27814640  1
  O  O7  1  0.72185360  0.50756509  0.03957864  1
  O  O8  1  0.03957864  0.72185360  0.50756509  1
  O  O9  1  0.50756509  0.03957864  0.72185360  1
