# generated using pymatgen
data_MgH10CO8
_symmetry_space_group_name_H-M   'P 1'
_cell_length_a   7.56294060
_cell_length_b   7.17161232
_cell_length_c   12.40183792
_cell_angle_alpha   77.59533604
_cell_angle_beta   90.00000000
_cell_angle_gamma   90.00000000
_symmetry_Int_Tables_number   1
_chemical_formula_structural   MgH10CO8
_chemical_formula_sum   'Mg4 H40 C4 O32'
_cell_volume   656.95350253
_cell_formula_units_Z   4
loop_
 _symmetry_equiv_pos_site_id
 _symmetry_equiv_pos_as_xyz
  1  'x, y, z'
loop_
 _atom_site_type_symbol
 _atom_site_label
 _atom_site_symmetry_multiplicity
 _atom_site_fract_x
 _atom_site_fract_y
 _atom_site_fract_z
 _atom_site_occupancy
  Mg  Mg0  1  0.50000000  0.00000000  0.50000000  1
  Mg  Mg1  1  0.00000000  0.00000000  0.00000000  1
  Mg  Mg2  1  0.50000000  0.50000000  0.00000000  1
  Mg  Mg3  1  0.00000000  0.50000000  0.50000000  1
  H  H4  1  0.62736578  0.63744883  0.14568793  1
  H  H5  1  0.12736578  0.36255117  0.35431207  1
  H  H6  1  0.37263422  0.36255117  0.85431207  1
  H  H7  1  0.87263422  0.63744883  0.64568793  1
  H  H8  1  0.55855960  0.25565544  0.85815681  1
  H  H9  1  0.05855960  0.74434456  0.64184319  1
  H  H10  1  0.44144040  0.74434456  0.14184319  1
  H  H11  1  0.94144040  0.25565544  0.35815681  1
  H  H12  1  0.71563697  0.55688542  0.83205524  1
  H  H13  1  0.21563697  0.44311458  0.66794476  1
  H  H14  1  0.28436303  0.44311458  0.16794476  1
  H  H15  1  0.78436303  0.55688542  0.33205524  1
  H  H16  1  0.20806703  0.29697370  0.10093983  1
  H  H17  1  0.70806703  0.70302630  0.39906017  1
  H  H18  1  0.79193297  0.70302630  0.89906017  1
  H  H19  1  0.29193297  0.29697370  0.60093983  1
  H  H20  1  0.65819677  0.90595928  0.05662916  1
  H  H21  1  0.15819677  0.09404072  0.44337084  1
  H  H22  1  0.34180323  0.09404072  0.94337084  1
  H  H23  1  0.84180323  0.90595928  0.55662916  1
  H  H24  1  0.69680087  0.11642007  0.07653984  1
  H  H25  1  0.19680087  0.88357993  0.42346016  1
  H  H26  1  0.30319913  0.88357993  0.92346016  1
  H  H27  1  0.80319913  0.11642007  0.57653984  1
  H  H28  1  0.67535905  0.02298562  0.31119981  1
  H  H29  1  0.17535905  0.97701438  0.18880019  1
  H  H30  1  0.32464095  0.97701438  0.68880019  1
  H  H31  1  0.82464095  0.02298562  0.81119981  1
  H  H32  1  0.50229906  0.09826690  0.69660337  1
  H  H33  1  0.00229906  0.90173310  0.80339663  1
  H  H34  1  0.49770094  0.90173310  0.30339663  1
  H  H35  1  0.99770094  0.09826690  0.19660337  1
  H  H36  1  0.39150934  0.61885987  0.56154564  1
  H  H37  1  0.89150934  0.38114013  0.93845436  1
  H  H38  1  0.60849066  0.38114013  0.43845436  1
  H  H39  1  0.10849066  0.61885987  0.06154564  1
  H  H40  1  0.57085128  0.63869986  0.62086883  1
  H  H41  1  0.07085128  0.36130014  0.87913117  1
  H  H42  1  0.42914872  0.36130014  0.37913117  1
  H  H43  1  0.92914872  0.63869986  0.12086883  1
  C  C44  1  0.75090029  0.33811420  0.69635825  1
  C  C45  1  0.25090029  0.66188580  0.80364175  1
  C  C46  1  0.24909971  0.66188580  0.30364175  1
  C  C47  1  0.74909971  0.33811420  0.19635825  1
  O  O48  1  0.72108982  0.50999493  0.71072297  1
  O  O49  1  0.22108982  0.49000507  0.78927703  1
  O  O50  1  0.27891018  0.49000507  0.28927703  1
  O  O51  1  0.77891018  0.50999493  0.21072297  1
  O  O52  1  0.85122368  0.31352946  0.61722278  1
  O  O53  1  0.35122368  0.68647054  0.88277722  1
  O  O54  1  0.14877632  0.68647054  0.38277722  1
  O  O55  1  0.64877632  0.31352946  0.11722278  1
  O  O56  1  0.67810003  0.19420467  0.76171860  1
  O  O57  1  0.17810003  0.80579533  0.73828140  1
  O  O58  1  0.32189997  0.80579533  0.23828140  1
  O  O59  1  0.82189997  0.19420467  0.26171860  1
  O  O60  1  0.53435639  0.70529324  0.09331135  1
  O  O61  1  0.03435639  0.29470676  0.40668865  1
  O  O62  1  0.46564361  0.29470676  0.90668865  1
  O  O63  1  0.96564361  0.70529324  0.59331135  1
  O  O64  1  0.73029985  0.57964170  0.90834168  1
  O  O65  1  0.23029985  0.42035830  0.59165832  1
  O  O66  1  0.26970015  0.42035830  0.09165832  1
  O  O67  1  0.76970015  0.57964170  0.40834168  1
  O  O68  1  0.75475397  0.01022383  0.54586460  1
  O  O69  1  0.25475397  0.98977617  0.95413540  1
  O  O70  1  0.24524603  0.98977617  0.45413540  1
  O  O71  1  0.74524603  0.01022383  0.04586460  1
  O  O72  1  0.59258587  0.92586010  0.35295770  1
  O  O73  1  0.09258587  0.07413990  0.14704230  1
  O  O74  1  0.40741413  0.07413990  0.64704230  1
  O  O75  1  0.90741413  0.92586010  0.85295770  1
  O  O76  1  0.48618976  0.70934172  0.56708958  1
  O  O77  1  0.98618976  0.29065828  0.93291042  1
  O  O78  1  0.51381024  0.29065828  0.43291042  1
  O  O79  1  0.01381024  0.70934172  0.06708958  1
