# generated using pymatgen
data_NdInAu
_symmetry_space_group_name_H-M   'P 1'
_cell_length_a   7.81124545
_cell_length_b   7.81124545
_cell_length_c   4.15163863
_cell_angle_alpha   90.00000000
_cell_angle_beta   90.00000000
_cell_angle_gamma   120.00000181
_symmetry_Int_Tables_number   1
_chemical_formula_structural   NdInAu
_chemical_formula_sum   'Nd3 In3 Au3'
_cell_volume   219.37682054
_cell_formula_units_Z   3
loop_
 _symmetry_equiv_pos_site_id
 _symmetry_equiv_pos_as_xyz
  1  'x, y, z'
loop_
 _atom_site_type_symbol
 _atom_site_label
 _atom_site_symmetry_multiplicity
 _atom_site_fract_x
 _atom_site_fract_y
 _atom_site_fract_z
 _atom_site_occupancy
  Nd  Nd0  1  1.00000000  0.58893789  0.50000000  1
  Nd  Nd1  1  0.58893789  1.00000000  0.50000000  1
  Nd  Nd2  1  0.41106211  0.41106211  0.50000000  1
  In  In3  1  0.00000000  0.25199016  -0.00000000  1
  In  In4  1  0.25199016  0.00000000  0.00000000  1
  In  In5  1  0.74800984  0.74800984  0.00000000  1
  Au  Au6  1  0.00000000  -0.00000000  0.50000000  1
  Au  Au7  1  0.66666700  0.33333300  -0.00000000  1
  Au  Au8  1  0.33333300  0.66666700  0.00000000  1
