# generated using pymatgen
data_BaNiF6
_symmetry_space_group_name_H-M   'P 1'
_cell_length_a   4.82112658
_cell_length_b   4.82112539
_cell_length_c   4.82112602
_cell_angle_alpha   98.69118245
_cell_angle_beta   98.69117451
_cell_angle_gamma   98.69117462
_symmetry_Int_Tables_number   1
_chemical_formula_structural   BaNiF6
_chemical_formula_sum   'Ba1 Ni1 F6'
_cell_volume   107.75113970
_cell_formula_units_Z   1
loop_
 _symmetry_equiv_pos_site_id
 _symmetry_equiv_pos_as_xyz
  1  'x, y, z'
loop_
 _atom_site_type_symbol
 _atom_site_label
 _atom_site_symmetry_multiplicity
 _atom_site_fract_x
 _atom_site_fract_y
 _atom_site_fract_z
 _atom_site_occupancy
  Ba  Ba0  1  0.50000000  0.50000000  0.50000000  1
  Ni  Ni1  1  0.00000000  0.00000000  0.00000000  1
  F  F2  1  0.73484013  0.73484013  0.07365147  1
  F  F3  1  0.73484013  0.07365147  0.73484013  1
  F  F4  1  0.26515987  0.92634853  0.26515987  1
  F  F5  1  0.26515987  0.26515987  0.92634853  1
  F  F6  1  0.92634853  0.26515987  0.26515987  1
  F  F7  1  0.07365147  0.73484013  0.73484013  1
