# generated using pymatgen
data_Pu2InPt2
_symmetry_space_group_name_H-M   'P 1'
_cell_length_a   7.75211851
_cell_length_b   7.75211851
_cell_length_c   3.77634734
_cell_angle_alpha   90.00000000
_cell_angle_beta   90.00000000
_cell_angle_gamma   90.00000000
_symmetry_Int_Tables_number   1
_chemical_formula_structural   Pu2InPt2
_chemical_formula_sum   'Pu4 In2 Pt4'
_cell_volume   226.94088262
_cell_formula_units_Z   2
loop_
 _symmetry_equiv_pos_site_id
 _symmetry_equiv_pos_as_xyz
  1  'x, y, z'
loop_
 _atom_site_type_symbol
 _atom_site_label
 _atom_site_symmetry_multiplicity
 _atom_site_fract_x
 _atom_site_fract_y
 _atom_site_fract_z
 _atom_site_occupancy
  Pu  Pu0  1  0.67301351  0.17301351  0.50000000  1
  Pu  Pu1  1  0.17301351  0.32698649  0.50000000  1
  Pu  Pu2  1  0.32698649  0.82698649  0.50000000  1
  Pu  Pu3  1  0.82698649  0.67301351  0.50000000  1
  In  In4  1  -0.00000000  -0.00000000  -0.00000000  1
  In  In5  1  0.50000000  0.50000000  -0.00000000  1
  Pt  Pt6  1  0.86983381  0.36983381  -0.00000000  1
  Pt  Pt7  1  0.63016619  0.86983381  -0.00000000  1
  Pt  Pt8  1  0.13016619  0.63016619  0.00000000  1
  Pt  Pt9  1  0.36983381  0.13016619  0.00000000  1
