# generated using pymatgen
data_UTe2
_symmetry_space_group_name_H-M   'P 1'
_cell_length_a   8.10244801
_cell_length_b   8.10244801
_cell_length_c   8.10244801
_cell_angle_alpha   149.61345633
_cell_angle_beta   135.19542312
_cell_angle_gamma   55.09992563
_symmetry_Int_Tables_number   1
_chemical_formula_structural   UTe2
_chemical_formula_sum   'U2 Te4'
_cell_volume   188.41462237
_cell_formula_units_Z   2
loop_
 _symmetry_equiv_pos_site_id
 _symmetry_equiv_pos_as_xyz
  1  'x, y, z'
loop_
 _atom_site_type_symbol
 _atom_site_label
 _atom_site_symmetry_multiplicity
 _atom_site_fract_x
 _atom_site_fract_y
 _atom_site_fract_z
 _atom_site_occupancy
  U  U0  1  0.13660530  0.13660530  -0.00000000  1
  U  U1  1  0.86339470  0.86339470  -0.00000000  1
  Te  Te2  1  0.75161655  0.50000000  0.25161655  1
  Te  Te3  1  0.24838345  0.50000000  0.74838345  1
  Te  Te4  1  0.70505778  0.20505778  0.50000000  1
  Te  Te5  1  0.29494222  0.79494222  0.50000000  1
