# generated using pymatgen
data_Lu(HO)3
_symmetry_space_group_name_H-M   'P 1'
_cell_length_a   7.02588528
_cell_length_b   7.02588503
_cell_length_c   7.02588528
_cell_angle_alpha   109.70940026
_cell_angle_beta   109.70938704
_cell_angle_gamma   109.70939168
_symmetry_Int_Tables_number   1
_chemical_formula_structural   Lu(HO)3
_chemical_formula_sum   'Lu4 H12 O12'
_cell_volume   264.60110726
_cell_formula_units_Z   4
loop_
 _symmetry_equiv_pos_site_id
 _symmetry_equiv_pos_as_xyz
  1  'x, y, z'
loop_
 _atom_site_type_symbol
 _atom_site_label
 _atom_site_symmetry_multiplicity
 _atom_site_fract_x
 _atom_site_fract_y
 _atom_site_fract_z
 _atom_site_occupancy
  Lu  Lu0  1  0.50000000  0.00000000  0.00000000  1
  Lu  Lu1  1  0.50000000  0.50000000  0.50000000  1
  Lu  Lu2  1  0.00000000  0.00000000  0.50000000  1
  Lu  Lu3  1  0.00000000  0.50000000  0.00000000  1
  H  H4  1  0.64260965  0.95723767  0.68427535  1
  H  H5  1  0.35739035  0.04276233  0.31572465  1
  H  H6  1  0.72020460  0.16981228  0.54703542  1
  H  H7  1  0.27979540  0.83018772  0.45296458  1
  H  H8  1  0.45296458  0.27979540  0.83018772  1
  H  H9  1  0.54703542  0.72020460  0.16981228  1
  H  H10  1  0.31572465  0.35739035  0.04276233  1
  H  H11  1  0.68427535  0.64260965  0.95723767  1
  H  H12  1  0.04276233  0.31572465  0.35739035  1
  H  H13  1  0.95723767  0.68427535  0.64260965  1
  H  H14  1  0.83018772  0.45296458  0.27979540  1
  H  H15  1  0.16981228  0.54703542  0.72020460  1
  O  O16  1  0.51991936  0.83621298  0.68558654  1
  O  O17  1  0.48008064  0.16378702  0.31441346  1
  O  O18  1  0.84019254  0.17040205  0.67140028  1
  O  O19  1  0.15980746  0.82959795  0.32859972  1
  O  O20  1  0.32859972  0.15980746  0.82959795  1
  O  O21  1  0.67140028  0.84019254  0.17040205  1
  O  O22  1  0.31441346  0.48008064  0.16378702  1
  O  O23  1  0.68558654  0.51991936  0.83621298  1
  O  O24  1  0.16378702  0.31441346  0.48008064  1
  O  O25  1  0.83621298  0.68558654  0.51991936  1
  O  O26  1  0.82959795  0.32859972  0.15980746  1
  O  O27  1  0.17040205  0.67140028  0.84019254  1
