# generated using pymatgen
data_Cs2CuCl4
_symmetry_space_group_name_H-M   'P 1'
_cell_length_a   7.62365775
_cell_length_b   9.83993209
_cell_length_c   12.33603403
_cell_angle_alpha   90.00000000
_cell_angle_beta   90.00000000
_cell_angle_gamma   90.00000000
_symmetry_Int_Tables_number   1
_chemical_formula_structural   Cs2CuCl4
_chemical_formula_sum   'Cs8 Cu4 Cl16'
_cell_volume   925.40331550
_cell_formula_units_Z   4
loop_
 _symmetry_equiv_pos_site_id
 _symmetry_equiv_pos_as_xyz
  1  'x, y, z'
loop_
 _atom_site_type_symbol
 _atom_site_label
 _atom_site_symmetry_multiplicity
 _atom_site_fract_x
 _atom_site_fract_y
 _atom_site_fract_z
 _atom_site_occupancy
  Cs  Cs0  1  0.25000000  0.13438140  0.89614040  1
  Cs  Cs1  1  0.75000000  0.36561860  0.39614040  1
  Cs  Cs2  1  0.25000000  0.63438140  0.60385960  1
  Cs  Cs3  1  0.25000000  0.01271196  0.32691226  1
  Cs  Cs4  1  0.75000000  0.98728804  0.67308774  1
  Cs  Cs5  1  0.75000000  0.86561860  0.10385960  1
  Cs  Cs6  1  0.25000000  0.51271196  0.17308774  1
  Cs  Cs7  1  0.75000000  0.48728804  0.82691226  1
  Cu  Cu8  1  0.25000000  0.72916883  0.91727554  1
  Cu  Cu9  1  0.25000000  0.22916883  0.58272446  1
  Cu  Cu10  1  0.75000000  0.77083117  0.41727554  1
  Cu  Cu11  1  0.75000000  0.27083117  0.08272446  1
  Cl  Cl12  1  0.51502507  0.28673147  0.64264096  1
  Cl  Cl13  1  0.98497493  0.28673147  0.64264096  1
  Cl  Cl14  1  0.51502507  0.78673147  0.85735904  1
  Cl  Cl15  1  0.25000000  0.34848557  0.42679562  1
  Cl  Cl16  1  0.01502507  0.71326853  0.35735904  1
  Cl  Cl17  1  0.25000000  0.84848557  0.07320438  1
  Cl  Cl18  1  0.48497493  0.21326853  0.14264096  1
  Cl  Cl19  1  0.75000000  0.49498697  0.12123550  1
  Cl  Cl20  1  0.98497493  0.78673147  0.85735904  1
  Cl  Cl21  1  0.25000000  0.50501303  0.87876450  1
  Cl  Cl22  1  0.01502507  0.21326853  0.14264096  1
  Cl  Cl23  1  0.75000000  0.99498697  0.37876450  1
  Cl  Cl24  1  0.48497493  0.71326853  0.35735904  1
  Cl  Cl25  1  0.75000000  0.65151443  0.57320438  1
  Cl  Cl26  1  0.75000000  0.15151443  0.92679562  1
  Cl  Cl27  1  0.25000000  0.00501303  0.62123550  1
