# generated using pymatgen
data_Sr5(InSb3)2
_symmetry_space_group_name_H-M   'P 1'
_cell_length_a   4.71112937
_cell_length_b   12.80867745
_cell_length_c   14.89014922
_cell_angle_alpha   90.00000000
_cell_angle_beta   90.00000000
_cell_angle_gamma   90.00000000
_symmetry_Int_Tables_number   1
_chemical_formula_structural   Sr5(InSb3)2
_chemical_formula_sum   'Sr10 In4 Sb12'
_cell_volume   898.52128530
_cell_formula_units_Z   2
loop_
 _symmetry_equiv_pos_site_id
 _symmetry_equiv_pos_as_xyz
  1  'x, y, z'
loop_
 _atom_site_type_symbol
 _atom_site_label
 _atom_site_symmetry_multiplicity
 _atom_site_fract_x
 _atom_site_fract_y
 _atom_site_fract_z
 _atom_site_occupancy
  Sr  Sr0  1  0.50000000  0.08824809  0.75006018  1
  Sr  Sr1  1  0.50000000  0.17359511  0.01706641  1
  Sr  Sr2  1  0.50000000  0.41175191  0.25006018  1
  Sr  Sr3  1  0.50000000  0.82640489  0.98293359  1
  Sr  Sr4  1  0.50000000  0.32640489  0.51706641  1
  Sr  Sr5  1  0.50000000  0.00000000  0.50000000  1
  Sr  Sr6  1  0.50000000  0.58824809  0.74993982  1
  Sr  Sr7  1  0.50000000  0.91175191  0.24993982  1
  Sr  Sr8  1  0.50000000  0.50000000  -0.00000000  1
  Sr  Sr9  1  0.50000000  0.67359511  0.48293359  1
  In  In10  1  -0.00000000  0.32992110  0.71342032  1
  In  In11  1  0.00000000  0.17007890  0.21342032  1
  In  In12  1  0.00000000  0.67007890  0.28657968  1
  In  In13  1  -0.00000000  0.82992110  0.78657968  1
  Sb  Sb14  1  0.00000000  0.65433963  0.90472280  1
  Sb  Sb15  1  0.50000000  0.66310386  0.17632116  1
  Sb  Sb16  1  0.00000000  0.02345285  0.90543959  1
  Sb  Sb17  1  0.00000000  0.47654715  0.40543959  1
  Sb  Sb18  1  0.50000000  0.33689614  0.82367884  1
  Sb  Sb19  1  0.50000000  0.16310386  0.32367884  1
  Sb  Sb20  1  0.00000000  0.34566037  0.09527720  1
  Sb  Sb21  1  0.00000000  0.15433963  0.59527720  1
  Sb  Sb22  1  0.00000000  0.97654715  0.09456041  1
  Sb  Sb23  1  0.50000000  0.83689614  0.67632116  1
  Sb  Sb24  1  0.00000000  0.52345285  0.59456041  1
  Sb  Sb25  1  -0.00000000  0.84566037  0.40472280  1
