# generated using pymatgen
data_KNd(PO3)4
_symmetry_space_group_name_H-M   'P 1'
_cell_length_a   8.45097464
_cell_length_b   7.28164484
_cell_length_c   8.00591481
_cell_angle_alpha   88.06085541
_cell_angle_beta   90.00000000
_cell_angle_gamma   90.00000000
_symmetry_Int_Tables_number   1
_chemical_formula_structural   KNd(PO3)4
_chemical_formula_sum   'K2 Nd2 P8 O24'
_cell_volume   492.37781561
_cell_formula_units_Z   2
loop_
 _symmetry_equiv_pos_site_id
 _symmetry_equiv_pos_as_xyz
  1  'x, y, z'
loop_
 _atom_site_type_symbol
 _atom_site_label
 _atom_site_symmetry_multiplicity
 _atom_site_fract_x
 _atom_site_fract_y
 _atom_site_fract_z
 _atom_site_occupancy
  K  K0  1  0.43523235  0.26899462  0.28003821  1
  K  K1  1  0.93523235  0.73100538  0.71996179  1
  Nd  Nd2  1  0.25050282  0.76476565  0.24290737  1
  Nd  Nd3  1  0.75050282  0.23523435  0.75709263  1
  P  P4  1  0.39808830  0.00136568  0.62005392  1
  P  P5  1  0.89808830  -0.00136568  0.37994608  1
  P  P6  1  0.00373009  0.37883785  0.39699635  1
  P  P7  1  0.50373009  0.62116215  0.60300365  1
  P  P8  1  0.87397658  0.56596695  0.09841259  1
  P  P9  1  0.37397658  0.43403305  0.90158741  1
  P  P10  1  0.67108460  0.89785911  0.10323710  1
  P  P11  1  0.17108460  0.10214089  0.89676290  1
  O  O12  1  0.44622689  0.60981157  0.42874869  1
  O  O13  1  0.94622689  0.39018843  0.57125131  1
  O  O14  1  0.20078405  0.03769321  0.07211481  1
  O  O15  1  0.70078405  0.96230679  0.92788519  1
  O  O16  1  0.15790265  0.46282173  0.34994496  1
  O  O17  1  0.65790265  0.53717827  0.65005504  1
  O  O18  1  0.36846191  0.54217103  0.72537744  1
  O  O19  1  0.86846191  0.45782897  0.27462256  1
  O  O20  1  0.51090948  0.82994483  0.65532617  1
  O  O21  1  0.01090948  0.17005517  0.34467383  1
  O  O22  1  0.29665945  0.97014367  0.47188628  1
  O  O23  1  0.79665945  0.02985633  0.52811372  1
  O  O24  1  0.01097928  0.08433509  0.82350949  1
  O  O25  1  0.51097928  0.91566491  0.17649051  1
  O  O26  1  0.71945509  0.68743037  0.12525761  1
  O  O27  1  0.21945509  0.31256963  0.87474239  1
  O  O28  1  0.79440103  0.00789425  0.21440934  1
  O  O29  1  0.29440103  0.99210575  0.78559066  1
  O  O30  1  -0.00215099  0.83046798  0.38668570  1
  O  O31  1  0.49784901  0.16953202  0.61331430  1
  O  O32  1  0.01561603  0.68431119  0.07359693  1
  O  O33  1  0.51561603  0.31568881  0.92640307  1
  O  O34  1  0.84323939  0.43516352  0.96370584  1
  O  O35  1  0.34323939  0.56483648  0.03629416  1
