# generated using pymatgen
data_EuPd3
_symmetry_space_group_name_H-M   'P 1'
_cell_length_a   4.16615049
_cell_length_b   4.16625354
_cell_length_c   4.16609037
_cell_angle_alpha   90.00339333
_cell_angle_beta   89.99822147
_cell_angle_gamma   90.00109280
_symmetry_Int_Tables_number   1
_chemical_formula_structural   EuPd3
_chemical_formula_sum   'Eu1 Pd3'
_cell_volume   72.31182711
_cell_formula_units_Z   1
loop_
 _symmetry_equiv_pos_site_id
 _symmetry_equiv_pos_as_xyz
  1  'x, y, z'
loop_
 _atom_site_type_symbol
 _atom_site_label
 _atom_site_symmetry_multiplicity
 _atom_site_fract_x
 _atom_site_fract_y
 _atom_site_fract_z
 _atom_site_occupancy
  Eu  Eu0  1  -0.00000005  0.00000000  0.00000173  1
  Pd  Pd1  1  0.50000021  0.49999900  0.00000011  1
  Pd  Pd2  1  0.50000188  -0.00000000  0.49999917  1
  Pd  Pd3  1  0.99999895  0.50000100  0.49999899  1
