# generated using pymatgen
data_Pu2Ni2Sn
_symmetry_space_group_name_H-M   'P 1'
_cell_length_a   7.31050913
_cell_length_b   7.31050913
_cell_length_c   3.71551981
_cell_angle_alpha   90.00000000
_cell_angle_beta   90.00000000
_cell_angle_gamma   90.00000000
_symmetry_Int_Tables_number   1
_chemical_formula_structural   Pu2Ni2Sn
_chemical_formula_sum   'Pu4 Ni4 Sn2'
_cell_volume   198.57054548
_cell_formula_units_Z   2
loop_
 _symmetry_equiv_pos_site_id
 _symmetry_equiv_pos_as_xyz
  1  'x, y, z'
loop_
 _atom_site_type_symbol
 _atom_site_label
 _atom_site_symmetry_multiplicity
 _atom_site_fract_x
 _atom_site_fract_y
 _atom_site_fract_z
 _atom_site_occupancy
  Pu  Pu0  1  0.17991620  0.32008380  0.50000000  1
  Pu  Pu1  1  0.67991620  0.17991620  0.50000000  1
  Pu  Pu2  1  0.82008380  0.67991620  0.50000000  1
  Pu  Pu3  1  0.32008380  0.82008380  0.50000000  1
  Ni  Ni4  1  0.12053697  0.62053697  0.00000000  1
  Ni  Ni5  1  0.62053697  0.87946303  -0.00000000  1
  Ni  Ni6  1  0.37946303  0.12053697  0.00000000  1
  Ni  Ni7  1  0.87946303  0.37946303  -0.00000000  1
  Sn  Sn8  1  -0.00000000  0.00000000  -0.00000000  1
  Sn  Sn9  1  0.50000000  0.50000000  -0.00000000  1
