# generated using pymatgen
data_UTe5
_symmetry_space_group_name_H-M   'P 1'
_cell_length_a   4.31822816
_cell_length_b   10.34175867
_cell_length_c   19.09001447
_cell_angle_alpha   90.00000000
_cell_angle_beta   90.00000000
_cell_angle_gamma   90.00000000
_symmetry_Int_Tables_number   1
_chemical_formula_structural   UTe5
_chemical_formula_sum   'U4 Te20'
_cell_volume   852.52326956
_cell_formula_units_Z   4
loop_
 _symmetry_equiv_pos_site_id
 _symmetry_equiv_pos_as_xyz
  1  'x, y, z'
loop_
 _atom_site_type_symbol
 _atom_site_label
 _atom_site_symmetry_multiplicity
 _atom_site_fract_x
 _atom_site_fract_y
 _atom_site_fract_z
 _atom_site_occupancy
  U  U0  1  0.39628351  0.24598888  0.59184638  1
  U  U1  1  0.60371649  0.74598888  0.40815362  1
  U  U2  1  0.89628351  0.74598888  0.90815362  1
  U  U3  1  0.10371649  0.24598888  0.09184638  1
  Te  Te4  1  0.60777359  0.43532626  0.15886447  1
  Te  Te5  1  0.37676698  0.75919239  0.03200755  1
  Te  Te6  1  0.12323302  0.75919239  0.53200755  1
  Te  Te7  1  0.10777359  0.93532626  0.34113553  1
  Te  Te8  1  0.05727115  0.99356970  -0.00078035  1
  Te  Te9  1  0.64553375  0.75175686  0.74904178  1
  Te  Te10  1  0.62323302  0.25919239  0.96799245  1
  Te  Te11  1  0.14553375  0.25175686  0.75095822  1
  Te  Te12  1  0.55727115  0.49356970  0.50078035  1
  Te  Te13  1  0.44272885  0.99356970  0.49921965  1
  Te  Te14  1  0.39136594  0.56286390  0.83580925  1
  Te  Te15  1  0.94272885  0.49356970  0.00078035  1
  Te  Te16  1  0.10863406  0.56286390  0.33580925  1
  Te  Te17  1  0.39222641  0.93532626  0.84113553  1
  Te  Te18  1  0.89136594  0.06286390  0.66419075  1
  Te  Te19  1  0.85446625  0.75175686  0.24904178  1
  Te  Te20  1  0.60863406  0.06286390  0.16419075  1
  Te  Te21  1  0.89222641  0.43532626  0.65886447  1
  Te  Te22  1  0.87676698  0.25919239  0.46799245  1
  Te  Te23  1  0.35446625  0.25175686  0.25095822  1
