# generated using pymatgen
data_KPF6
_symmetry_space_group_name_H-M   'P 1'
_cell_length_a   5.14676958
_cell_length_b   5.53524043
_cell_length_c   5.14676802
_cell_angle_alpha   62.29564528
_cell_angle_beta   59.99999776
_cell_angle_gamma   62.29564923
_symmetry_Int_Tables_number   1
_chemical_formula_structural   KPF6
_chemical_formula_sum   'K1 P1 F6'
_cell_volume   107.13200227
_cell_formula_units_Z   1
loop_
 _symmetry_equiv_pos_site_id
 _symmetry_equiv_pos_as_xyz
  1  'x, y, z'
loop_
 _atom_site_type_symbol
 _atom_site_label
 _atom_site_symmetry_multiplicity
 _atom_site_fract_x
 _atom_site_fract_y
 _atom_site_fract_z
 _atom_site_occupancy
  K  K0  1  0.50000000  0.50000000  0.50000000  1
  P  P1  1  0.00000000  0.00000000  0.00000000  1
  F  F2  1  0.08133798  0.20026932  0.08133798  1
  F  F3  1  0.08133798  0.20026932  0.63705373  1
  F  F4  1  0.63705373  0.20026932  0.08133798  1
  F  F5  1  0.36294627  0.79973068  0.91866202  1
  F  F6  1  0.91866202  0.79973068  0.36294627  1
  F  F7  1  0.91866202  0.79973068  0.91866202  1
