# generated using pymatgen
data_NaH3SO5
_symmetry_space_group_name_H-M   'P 1'
_cell_length_a   5.44488179
_cell_length_b   5.44488179
_cell_length_c   7.90205091
_cell_angle_alpha   70.96436516
_cell_angle_beta   70.96436516
_cell_angle_gamma   89.61803014
_symmetry_Int_Tables_number   1
_chemical_formula_structural   NaH3SO5
_chemical_formula_sum   'Na2 H6 S2 O10'
_cell_volume   208.04157953
_cell_formula_units_Z   2
loop_
 _symmetry_equiv_pos_site_id
 _symmetry_equiv_pos_as_xyz
  1  'x, y, z'
loop_
 _atom_site_type_symbol
 _atom_site_label
 _atom_site_symmetry_multiplicity
 _atom_site_fract_x
 _atom_site_fract_y
 _atom_site_fract_z
 _atom_site_occupancy
  Na  Na0  1  0.45595750  0.51123819  0.49240690  1
  Na  Na1  1  0.51123819  0.45595750  0.99240690  1
  H  H2  1  0.52164212  0.12479706  0.78011315  1
  H  H3  1  0.12479606  0.52164212  0.28011315  1
  H  H4  1  0.79825809  0.27593884  0.69497884  1
  H  H5  1  0.27593884  0.79825809  0.19497884  1
  H  H6  1  0.82043512  0.90738060  0.00060569  1
  H  H7  1  0.90738060  0.82043512  0.50060569  1
  S  S8  1  0.11692083  0.88205357  0.74518506  1
  S  S9  1  0.88205357  0.11692083  0.24518506  1
  O  O10  1  0.12276790  0.16139277  0.65355349  1
  O  O11  1  0.16139277  0.12276790  0.15355349  1
  O  O12  1  0.08951510  0.73062865  0.62876826  1
  O  O13  1  0.73062865  0.08951510  0.12876826  1
  O  O14  1  0.85357672  0.79097882  0.92036193  1
  O  O15  1  0.79097882  0.85357672  0.42036193  1
  O  O16  1  0.33105281  0.81470222  0.81622773  1
  O  O17  1  0.81470222  0.33105281  0.31622773  1
  O  O18  1  0.61297415  0.29858994  0.74079794  1
  O  O19  1  0.29858994  0.61297415  0.24079794  1
