# generated using pymatgen
data_Te3Pd13
_symmetry_space_group_name_H-M   'P 1'
_cell_length_a   9.05356789
_cell_length_b   9.05496302
_cell_length_c   9.05383727
_cell_angle_alpha   59.99372403
_cell_angle_beta   59.99757364
_cell_angle_gamma   60.00195654
_symmetry_Int_Tables_number   1
_chemical_formula_structural   Te3Pd13
_chemical_formula_sum   'Te6 Pd26'
_cell_volume   524.80985771
_cell_formula_units_Z   2
loop_
 _symmetry_equiv_pos_site_id
 _symmetry_equiv_pos_as_xyz
  1  'x, y, z'
loop_
 _atom_site_type_symbol
 _atom_site_label
 _atom_site_symmetry_multiplicity
 _atom_site_fract_x
 _atom_site_fract_y
 _atom_site_fract_z
 _atom_site_occupancy
  Te  Te0  1  0.87496433  0.87513074  0.87484893  1
  Te  Te1  1  0.50005068  0.49999135  -0.00001927  1
  Te  Te2  1  0.49999440  0.49997668  0.50003306  1
  Te  Te3  1  0.49991846  0.00003694  0.49997997  1
  Te  Te4  1  -0.00000145  0.49999963  0.49997384  1
  Te  Te5  1  0.12506396  0.12488811  0.12513676  1
  Pd  Pd6  1  0.76073557  0.76071307  0.76068864  1
  Pd  Pd7  1  0.37502044  0.37500961  0.37500921  1
  Pd  Pd8  1  0.13771181  0.61230646  0.13768439  1
  Pd  Pd9  1  0.76068028  0.21797031  0.76065887  1
  Pd  Pd10  1  -0.00000298  -0.00000384  0.00001383  1
  Pd  Pd11  1  0.78220161  0.23928080  0.23927692  1
  Pd  Pd12  1  0.61230969  0.13767806  0.13770573  1
  Pd  Pd13  1  0.76074958  0.76073855  0.21779076  1
  Pd  Pd14  1  0.61229469  0.13767758  0.61231417  1
  Pd  Pd15  1  0.86232393  0.38768125  0.86230610  1
  Pd  Pd16  1  0.13769841  0.61228870  0.61231792  1
  Pd  Pd17  1  0.23926268  0.23928992  0.23932614  1
  Pd  Pd18  1  0.23931259  0.78203961  0.23934250  1
  Pd  Pd19  1  0.61230314  0.61231169  0.13770311  1
  Pd  Pd20  1  -0.00000505  -0.00000957  0.50000386  1
  Pd  Pd21  1  0.86228538  0.86233205  0.38767691  1
  Pd  Pd22  1  0.62498932  0.62501630  0.62498022  1
  Pd  Pd23  1  0.38770676  0.86230313  0.38768306  1
  Pd  Pd24  1  0.86229137  0.38770171  0.38768623  1
  Pd  Pd25  1  -0.00000473  0.49999903  0.00000482  1
  Pd  Pd26  1  0.38768846  0.38768955  0.86231196  1
  Pd  Pd27  1  0.38770559  0.86231724  0.86228569  1
  Pd  Pd28  1  0.23926117  0.23926260  0.78220614  1
  Pd  Pd29  1  0.21780512  0.76071474  0.76073154  1
  Pd  Pd30  1  0.13768221  0.13767574  0.61233779  1
  Pd  Pd31  1  0.50000358  -0.00000675  0.00000219  1
