# generated using pymatgen
data_Hf2Nb3Ge4
_symmetry_space_group_name_H-M   'P 1'
_cell_length_a   6.80382826
_cell_length_b   6.94891919
_cell_length_c   13.21238047
_cell_angle_alpha   90.00000000
_cell_angle_beta   90.00000000
_cell_angle_gamma   90.00000000
_symmetry_Int_Tables_number   1
_chemical_formula_structural   Hf2Nb3Ge4
_chemical_formula_sum   'Hf8 Nb12 Ge16'
_cell_volume   624.67147582
_cell_formula_units_Z   4
loop_
 _symmetry_equiv_pos_site_id
 _symmetry_equiv_pos_as_xyz
  1  'x, y, z'
loop_
 _atom_site_type_symbol
 _atom_site_label
 _atom_site_symmetry_multiplicity
 _atom_site_fract_x
 _atom_site_fract_y
 _atom_site_fract_z
 _atom_site_occupancy
  Hf  Hf0  1  0.48804819  0.67547666  0.59097715  1
  Hf  Hf1  1  0.98804819  0.82452334  0.90902285  1
  Hf  Hf2  1  0.51195181  0.32452334  0.09097715  1
  Hf  Hf3  1  0.01195181  0.17547666  0.40902285  1
  Hf  Hf4  1  0.51195181  0.32452334  0.40902285  1
  Hf  Hf5  1  0.01195181  0.17547666  0.09097715  1
  Hf  Hf6  1  0.48804819  0.67547666  0.90902285  1
  Hf  Hf7  1  0.98804819  0.82452334  0.59097715  1
  Nb  Nb8  1  0.65839065  0.16608187  0.62405800  1
  Nb  Nb9  1  0.15839065  0.33391813  0.87594200  1
  Nb  Nb10  1  0.34160935  0.83391813  0.12405800  1
  Nb  Nb11  1  0.84160935  0.66608187  0.37594200  1
  Nb  Nb12  1  0.34160935  0.83391813  0.37594200  1
  Nb  Nb13  1  0.84160935  0.66608187  0.12405800  1
  Nb  Nb14  1  0.65839065  0.16608187  0.87594200  1
  Nb  Nb15  1  0.15839065  0.33391813  0.62405800  1
  Nb  Nb16  1  0.83457334  0.49355149  0.75000000  1
  Nb  Nb17  1  0.33457334  0.00644851  0.75000000  1
  Nb  Nb18  1  0.16542666  0.50644851  0.25000000  1
  Nb  Nb19  1  0.66542666  0.99355149  0.25000000  1
  Ge  Ge20  1  0.68416701  0.96159224  0.46007913  1
  Ge  Ge21  1  0.18416701  0.53840776  0.03992087  1
  Ge  Ge22  1  0.31583299  0.03840776  0.96007913  1
  Ge  Ge23  1  0.81583299  0.46159224  0.53992087  1
  Ge  Ge24  1  0.31583299  0.03840776  0.53992087  1
  Ge  Ge25  1  0.81583299  0.46159224  0.96007913  1
  Ge  Ge26  1  0.68416701  0.96159224  0.03992087  1
  Ge  Ge27  1  0.18416701  0.53840776  0.46007913  1
  Ge  Ge28  1  0.46026306  0.38893161  0.75000000  1
  Ge  Ge29  1  0.96026306  0.11106839  0.75000000  1
  Ge  Ge30  1  0.53973694  0.61106839  0.25000000  1
  Ge  Ge31  1  0.03973694  0.88893161  0.25000000  1
  Ge  Ge32  1  0.69300170  0.84915696  0.75000000  1
  Ge  Ge33  1  0.19300170  0.65084304  0.75000000  1
  Ge  Ge34  1  0.30699830  0.15084304  0.25000000  1
  Ge  Ge35  1  0.80699830  0.34915696  0.25000000  1
