# generated using pymatgen
data_Na2Te4O9
_symmetry_space_group_name_H-M   'P 1'
_cell_length_a   7.00735400
_cell_length_b   7.49488785
_cell_length_c   10.77485356
_cell_angle_alpha   109.56126807
_cell_angle_beta   91.05942188
_cell_angle_gamma   109.51584756
_symmetry_Int_Tables_number   1
_chemical_formula_structural   Na2Te4O9
_chemical_formula_sum   'Na4 Te8 O18'
_cell_volume   497.15132440
_cell_formula_units_Z   2
loop_
 _symmetry_equiv_pos_site_id
 _symmetry_equiv_pos_as_xyz
  1  'x, y, z'
loop_
 _atom_site_type_symbol
 _atom_site_label
 _atom_site_symmetry_multiplicity
 _atom_site_fract_x
 _atom_site_fract_y
 _atom_site_fract_z
 _atom_site_occupancy
  Na  Na0  1  0.98278300  0.54485200  0.63415300  1
  Na  Na1  1  0.01721700  0.45514800  0.36584700  1
  Na  Na2  1  0.47959600  0.73338600  0.48565700  1
  Na  Na3  1  0.52040400  0.26661400  0.51434300  1
  Te  Te4  1  0.02315600  0.99404500  0.32889300  1
  Te  Te5  1  0.97684400  0.00595500  0.67110700  1
  Te  Te6  1  0.52483900  0.40915400  0.80133000  1
  Te  Te7  1  0.47516100  0.59084600  0.19867000  1
  Te  Te8  1  0.45946900  0.84825000  0.78149700  1
  Te  Te9  1  0.54053100  0.15175000  0.21850300  1
  Te  Te10  1  0.00796000  0.29265800  0.99423800  1
  Te  Te11  1  0.99204000  0.70734200  0.00576200  1
  O  O12  1  0.95953900  0.01581900  0.14039600  1
  O  O13  1  0.04046100  0.98418100  0.85960400  1
  O  O14  1  0.03502900  0.27786700  0.59742400  1
  O  O15  1  0.96497100  0.72213300  0.40257600  1
  O  O16  1  0.71816400  0.23661800  0.90773200  1
  O  O17  1  0.28183600  0.76338200  0.09226800  1
  O  O18  1  0.33986800  0.99727400  0.33506200  1
  O  O19  1  0.66013200  0.00272600  0.66493800  1
  O  O20  1  0.06083300  0.60907700  0.88452900  1
  O  O21  1  0.93916700  0.39092300  0.11547100  1
  O  O22  1  0.64042500  0.49771600  0.64624900  1
  O  O23  1  0.35957500  0.50228400  0.35375100  1
  O  O24  1  0.66684100  0.61949800  0.88360500  1
  O  O25  1  0.33315900  0.38050200  0.11639500  1
  O  O26  1  0.65976300  0.35761100  0.30202300  1
  O  O27  1  0.34023700  0.64238900  0.69797700  1
  O  O28  1  0.28220200  0.01810600  0.66452700  1
  O  O29  1  0.71779800  0.98189400  0.33547300  1
