# generated using pymatgen
data_Ca4Mg3H14
_symmetry_space_group_name_H-M   'P 1'
_cell_length_a   6.20733359
_cell_length_b   6.20733359
_cell_length_c   6.87006212
_cell_angle_alpha   90.00000000
_cell_angle_beta   90.00000000
_cell_angle_gamma   119.99999427
_symmetry_Int_Tables_number   1
_chemical_formula_structural   Ca4Mg3H14
_chemical_formula_sum   'Ca4 Mg3 H14'
_cell_volume   229.24585503
_cell_formula_units_Z   1
loop_
 _symmetry_equiv_pos_site_id
 _symmetry_equiv_pos_as_xyz
  1  'x, y, z'
loop_
 _atom_site_type_symbol
 _atom_site_label
 _atom_site_symmetry_multiplicity
 _atom_site_fract_x
 _atom_site_fract_y
 _atom_site_fract_z
 _atom_site_occupancy
  Ca  Ca0  1  0.00000000  0.00000000  0.73311782  1
  Ca  Ca1  1  0.00000000  0.00000000  0.26688218  1
  Ca  Ca2  1  0.66666700  0.33333300  0.50000000  1
  Ca  Ca3  1  0.33333300  0.66666700  0.50000000  1
  Mg  Mg4  1  0.44095166  0.44095166  0.00000000  1
  Mg  Mg5  1  0.55904834  0.00000000  0.00000000  1
  Mg  Mg6  1  0.00000000  0.55904834  0.00000000  1
  H  H7  1  0.38781786  0.38781786  0.72499972  1
  H  H8  1  0.61218214  0.00000000  0.72499972  1
  H  H9  1  0.00000000  0.61218214  0.72499972  1
  H  H10  1  0.38781786  0.38781786  0.27500028  1
  H  H11  1  0.61218214  0.00000000  0.27500028  1
  H  H12  1  0.00000000  0.61218214  0.27500028  1
  H  H13  1  0.73695719  0.73695719  0.50000000  1
  H  H14  1  0.26304281  1.00000000  0.50000000  1
  H  H15  1  1.00000000  0.26304281  0.50000000  1
  H  H16  1  0.76872131  0.76872131  0.00000000  1
  H  H17  1  0.23127869  1.00000000  0.00000000  1
  H  H18  1  1.00000000  0.23127869  0.00000000  1
  H  H19  1  0.66666700  0.33333300  0.00000000  1
  H  H20  1  0.33333300  0.66666700  0.00000000  1
