# generated using pymatgen
data_NiF3
_symmetry_space_group_name_H-M   'P 1'
_cell_length_a   5.11930842
_cell_length_b   5.12022699
_cell_length_c   5.11859536
_cell_angle_alpha   55.32100963
_cell_angle_beta   55.32035036
_cell_angle_gamma   55.31793459
_symmetry_Int_Tables_number   1
_chemical_formula_structural   NiF3
_chemical_formula_sum   'Ni2 F6'
_cell_volume   84.55430844
_cell_formula_units_Z   2
loop_
 _symmetry_equiv_pos_site_id
 _symmetry_equiv_pos_as_xyz
  1  'x, y, z'
loop_
 _atom_site_type_symbol
 _atom_site_label
 _atom_site_symmetry_multiplicity
 _atom_site_fract_x
 _atom_site_fract_y
 _atom_site_fract_z
 _atom_site_occupancy
  Ni  Ni0  1  -0.00000000  -0.00000000  0.00000000  1
  Ni  Ni1  1  0.50000000  0.50000000  0.50000000  1
  F  F2  1  0.61914523  0.23917121  0.89952016  1
  F  F3  1  0.89919240  0.61947266  0.23913939  1
  F  F4  1  0.23874725  0.89937786  0.61927446  1
  F  F5  1  0.38085477  0.76082879  0.10047984  1
  F  F6  1  0.10080760  0.38052734  0.76086061  1
  F  F7  1  0.76125275  0.10062214  0.38072554  1
