# generated using pymatgen
data_Cu3AsSe4
_symmetry_space_group_name_H-M   'P 1'
_cell_length_a   6.78088969
_cell_length_b   6.78088969
_cell_length_c   6.78088969
_cell_angle_alpha   131.59820680
_cell_angle_beta   131.59820680
_cell_angle_gamma   70.86436064
_symmetry_Int_Tables_number   1
_chemical_formula_structural   Cu3AsSe4
_chemical_formula_sum   'Cu3 As1 Se4'
_cell_volume   170.76826676
_cell_formula_units_Z   1
loop_
 _symmetry_equiv_pos_site_id
 _symmetry_equiv_pos_as_xyz
  1  'x, y, z'
loop_
 _atom_site_type_symbol
 _atom_site_label
 _atom_site_symmetry_multiplicity
 _atom_site_fract_x
 _atom_site_fract_y
 _atom_site_fract_z
 _atom_site_occupancy
  Cu  Cu0  1  0.25000000  0.75000000  0.50000000  1
  Cu  Cu1  1  0.75000000  0.25000000  0.50000000  1
  Cu  Cu2  1  0.50000000  0.50000000  0.00000000  1
  As  As3  1  0.00000000  -0.00000000  0.00000000  1
  Se  Se4  1  0.87508804  0.38260277  0.00000000  1
  Se  Se5  1  0.12491196  0.12491196  0.50751573  1
  Se  Se6  1  0.38260277  0.87508804  0.00000000  1
  Se  Se7  1  0.61739723  0.61739723  0.49248427  1
