# generated using pymatgen
data_Ta3Ge
_symmetry_space_group_name_H-M   'P 1'
_cell_length_a   5.25358560
_cell_length_b   10.26199362
_cell_length_c   10.26210044
_cell_angle_alpha   89.99994340
_cell_angle_beta   89.99976474
_cell_angle_gamma   90.00023812
_symmetry_Int_Tables_number   1
_chemical_formula_structural   Ta3Ge
_chemical_formula_sum   'Ta24 Ge8'
_cell_volume   553.25304680
_cell_formula_units_Z   8
loop_
 _symmetry_equiv_pos_site_id
 _symmetry_equiv_pos_as_xyz
  1  'x, y, z'
loop_
 _atom_site_type_symbol
 _atom_site_label
 _atom_site_symmetry_multiplicity
 _atom_site_fract_x
 _atom_site_fract_y
 _atom_site_fract_z
 _atom_site_occupancy
  Ta  Ta0  1  0.96978953  0.89934539  0.76789897  1
  Ta  Ta1  1  0.46978852  0.23209269  0.39932661  1
  Ta  Ta2  1  0.78375282  0.66464511  0.34901578  1
  Ta  Ta3  1  0.71625534  0.15097134  0.66463726  1
  Ta  Ta4  1  0.73457729  0.06227149  0.96256701  1
  Ta  Ta5  1  0.23457968  0.46255221  0.93774865  1
  Ta  Ta6  1  0.03021475  0.10068427  0.23212081  1
  Ta  Ta7  1  0.76541118  0.96256591  0.43774645  1
  Ta  Ta8  1  0.28375152  0.84902918  0.33534886  1
  Ta  Ta9  1  0.03021687  0.39932088  0.26786318  1
  Ta  Ta10  1  0.96978856  0.60065184  0.73211059  1
  Ta  Ta11  1  0.23457956  0.03744118  0.56225849  1
  Ta  Ta12  1  0.53021268  0.73213226  0.89932832  1
  Ta  Ta13  1  0.21624539  0.33535401  0.65097320  1
  Ta  Ta14  1  0.26540990  0.56223546  0.46255601  1
  Ta  Ta15  1  0.53021278  0.76786993  0.60067661  1
  Ta  Ta16  1  0.46978371  0.26789984  0.10065888  1
  Ta  Ta17  1  0.28375638  0.65097105  0.16465326  1
  Ta  Ta18  1  0.26540970  0.93776939  0.03743924  1
  Ta  Ta19  1  0.21625468  0.16464993  0.84904281  1
  Ta  Ta20  1  0.71624418  0.34902285  0.83537329  1
  Ta  Ta21  1  0.76541917  0.53742462  0.06223977  1
  Ta  Ta22  1  0.73457285  0.43773742  0.53743697  1
  Ta  Ta23  1  0.78375553  0.83536113  0.15097663  1
  Ge  Ge24  1  0.53381187  0.04638753  0.22116292  1
  Ge  Ge25  1  0.03379962  0.77882958  0.54638533  1
  Ge  Ge26  1  0.96619731  0.27881614  0.04641071  1
  Ge  Ge27  1  0.03380113  0.72117194  0.95362057  1
  Ge  Ge28  1  0.96619568  0.22118180  0.45358645  1
  Ge  Ge29  1  0.46620392  0.54640581  0.72119021  1
  Ge  Ge30  1  0.53380845  0.45361134  0.27881895  1
  Ge  Ge31  1  0.46619947  0.95359450  0.77882818  1
