# generated using pymatgen
data_Pa
_symmetry_space_group_name_H-M   'P 1'
_cell_length_a   3.19844350
_cell_length_b   3.19844334
_cell_length_c   3.19844471
_cell_angle_alpha   104.19833388
_cell_angle_beta   104.19834365
_cell_angle_gamma   120.62660981
_symmetry_Int_Tables_number   1
_chemical_formula_structural   Pa
_chemical_formula_sum   Pa1
_cell_volume   24.46037090
_cell_formula_units_Z   1
loop_
 _symmetry_equiv_pos_site_id
 _symmetry_equiv_pos_as_xyz
  1  'x, y, z'
loop_
 _atom_site_type_symbol
 _atom_site_label
 _atom_site_symmetry_multiplicity
 _atom_site_fract_x
 _atom_site_fract_y
 _atom_site_fract_z
 _atom_site_occupancy
  Pa  Pa0  1  -0.00000000  -0.00000000  0.00000000  1
