# generated using pymatgen
data_Cs2CoF6
_symmetry_space_group_name_H-M   'P 1'
_cell_length_a   6.25267012
_cell_length_b   6.25268692
_cell_length_c   6.25164196
_cell_angle_alpha   60.17757328
_cell_angle_beta   60.17710556
_cell_angle_gamma   60.20809395
_symmetry_Int_Tables_number   1
_chemical_formula_structural   Cs2CoF6
_chemical_formula_sum   'Cs2 Co1 F6'
_cell_volume   173.56103619
_cell_formula_units_Z   1
loop_
 _symmetry_equiv_pos_site_id
 _symmetry_equiv_pos_as_xyz
  1  'x, y, z'
loop_
 _atom_site_type_symbol
 _atom_site_label
 _atom_site_symmetry_multiplicity
 _atom_site_fract_x
 _atom_site_fract_y
 _atom_site_fract_z
 _atom_site_occupancy
  Cs  Cs0  1  0.75000681  0.75000639  0.75002376  1
  Cs  Cs1  1  0.24999411  0.24999339  0.24997591  1
  Co  Co2  1  -0.00000107  0.00000013  0.00000067  1
  F  F3  1  0.20342862  0.79710308  0.79730086  1
  F  F4  1  0.20289322  0.79657716  0.20270358  1
  F  F5  1  0.79710817  0.20342381  0.79729523  1
  F  F6  1  0.79657325  0.20289729  0.20269762  1
  F  F7  1  0.79718842  0.79718468  0.20336118  1
  F  F8  1  0.20280847  0.20281408  0.79664120  1
