# generated using pymatgen
data_Zr7Ni10
_symmetry_space_group_name_H-M   'P 1'
_cell_length_a   7.67283881
_cell_length_b   7.67283881
_cell_length_c   9.11341814
_cell_angle_alpha   90.00000000
_cell_angle_beta   90.00000000
_cell_angle_gamma   107.03190925
_symmetry_Int_Tables_number   1
_chemical_formula_structural   Zr7Ni10
_chemical_formula_sum   'Zr14 Ni20'
_cell_volume   512.99808297
_cell_formula_units_Z   2
loop_
 _symmetry_equiv_pos_site_id
 _symmetry_equiv_pos_as_xyz
  1  'x, y, z'
loop_
 _atom_site_type_symbol
 _atom_site_label
 _atom_site_symmetry_multiplicity
 _atom_site_fract_x
 _atom_site_fract_y
 _atom_site_fract_z
 _atom_site_occupancy
  Zr  Zr0  1  0.19140156  0.80859844  -0.00000000  1
  Zr  Zr1  1  0.69140156  0.30859844  0.50000000  1
  Zr  Zr2  1  0.31352746  0.31352746  0.68653344  1
  Zr  Zr3  1  0.68647254  0.68647254  0.31346656  1
  Zr  Zr4  1  0.80859844  0.19140156  -0.00000000  1
  Zr  Zr5  1  0.00098729  0.50098729  0.75000000  1
  Zr  Zr6  1  0.99901271  0.49901271  0.25000000  1
  Zr  Zr7  1  0.81352746  0.81352746  0.81346656  1
  Zr  Zr8  1  0.50000000  0.50000000  -0.00000000  1
  Zr  Zr9  1  0.49901271  0.99901271  0.25000000  1
  Zr  Zr10  1  0.30859844  0.69140156  0.50000000  1
  Zr  Zr11  1  0.50098729  0.00098729  0.75000000  1
  Zr  Zr12  1  0.18647254  0.18647254  0.18653344  1
  Zr  Zr13  1  -0.00000000  -0.00000000  0.50000000  1
  Ni  Ni14  1  0.89386040  0.89386040  0.10549746  1
  Ni  Ni15  1  0.63850577  0.34740824  0.20720402  1
  Ni  Ni16  1  0.06230429  0.35292241  0.49281113  1
  Ni  Ni17  1  0.65259176  0.36149423  0.79279598  1
  Ni  Ni18  1  0.84740824  0.13850577  0.29279598  1
  Ni  Ni19  1  0.13850577  0.84740824  0.29279598  1
  Ni  Ni20  1  0.60613960  0.60613960  0.60549746  1
  Ni  Ni21  1  0.43769571  0.14707759  0.99281113  1
  Ni  Ni22  1  0.36149423  0.65259176  0.79279598  1
  Ni  Ni23  1  0.15259176  0.86149423  0.70720402  1
  Ni  Ni24  1  0.14707759  0.43769571  0.99281113  1
  Ni  Ni25  1  0.56230429  0.85292241  0.00718887  1
  Ni  Ni26  1  0.93769571  0.64707759  0.50718887  1
  Ni  Ni27  1  0.64707759  0.93769571  0.50718887  1
  Ni  Ni28  1  0.10613960  0.10613960  0.89450254  1
  Ni  Ni29  1  0.39386040  0.39386040  0.39450254  1
  Ni  Ni30  1  0.85292241  0.56230429  0.00718887  1
  Ni  Ni31  1  0.35292241  0.06230429  0.49281113  1
  Ni  Ni32  1  0.86149423  0.15259176  0.70720402  1
  Ni  Ni33  1  0.34740824  0.63850577  0.20720402  1
