# generated using pymatgen
data_ZrInNi4
_symmetry_space_group_name_H-M   'P 1'
_cell_length_a   4.85169899
_cell_length_b   4.85170014
_cell_length_c   4.85169967
_cell_angle_alpha   60.00000329
_cell_angle_beta   59.99999541
_cell_angle_gamma   59.99998880
_symmetry_Int_Tables_number   1
_chemical_formula_structural   ZrInNi4
_chemical_formula_sum   'Zr1 In1 Ni4'
_cell_volume   80.75448842
_cell_formula_units_Z   1
loop_
 _symmetry_equiv_pos_site_id
 _symmetry_equiv_pos_as_xyz
  1  'x, y, z'
loop_
 _atom_site_type_symbol
 _atom_site_label
 _atom_site_symmetry_multiplicity
 _atom_site_fract_x
 _atom_site_fract_y
 _atom_site_fract_z
 _atom_site_occupancy
  Zr  Zr0  1  0.00000000  0.00000000  -0.00000000  1
  In  In1  1  0.25000000  0.25000000  0.25000000  1
  Ni  Ni2  1  0.62482988  0.62482988  0.12551037  1
  Ni  Ni3  1  0.62482988  0.62482988  0.62482988  1
  Ni  Ni4  1  0.12551037  0.62482988  0.62482988  1
  Ni  Ni5  1  0.62482988  0.12551037  0.62482988  1
