# generated using pymatgen
data_Pr3(Ge3Pt2)2
_symmetry_space_group_name_H-M   'P 1'
_cell_length_a   4.44494535
_cell_length_b   8.86678271
_cell_length_c   26.30328376
_cell_angle_alpha   90.00000000
_cell_angle_beta   90.00000000
_cell_angle_gamma   90.00000000
_symmetry_Int_Tables_number   1
_chemical_formula_structural   Pr3(Ge3Pt2)2
_chemical_formula_sum   'Pr12 Ge24 Pt16'
_cell_volume   1036.67460910
_cell_formula_units_Z   4
loop_
 _symmetry_equiv_pos_site_id
 _symmetry_equiv_pos_as_xyz
  1  'x, y, z'
loop_
 _atom_site_type_symbol
 _atom_site_label
 _atom_site_symmetry_multiplicity
 _atom_site_fract_x
 _atom_site_fract_y
 _atom_site_fract_z
 _atom_site_occupancy
  Pr  Pr0  1  0.25000000  0.87472157  0.72033027  1
  Pr  Pr1  1  0.75000000  0.88451078  0.40787959  1
  Pr  Pr2  1  0.25000000  0.38451078  0.09212041  1
  Pr  Pr3  1  0.75000000  0.61548922  0.90787959  1
  Pr  Pr4  1  0.75000000  0.36672063  0.40745220  1
  Pr  Pr5  1  0.75000000  0.12527843  0.27966973  1
  Pr  Pr6  1  0.25000000  0.11548922  0.59212041  1
  Pr  Pr7  1  0.25000000  0.63327937  0.59254780  1
  Pr  Pr8  1  0.25000000  0.86672063  0.09254780  1
  Pr  Pr9  1  0.75000000  0.37472157  0.77966973  1
  Pr  Pr10  1  0.25000000  0.62527843  0.22033027  1
  Pr  Pr11  1  0.75000000  0.13327937  0.90745220  1
  Ge  Ge12  1  0.75000000  0.87733685  0.99849428  1
  Ge  Ge13  1  0.25000000  0.62610993  0.35937182  1
  Ge  Ge14  1  0.25000000  0.12525013  0.36222118  1
  Ge  Ge15  1  0.25000000  0.27352124  0.21498832  1
  Ge  Ge16  1  0.75000000  0.87474987  0.63777882  1
  Ge  Ge17  1  0.75000000  0.77352124  0.28501168  1
  Ge  Ge18  1  0.75000000  0.47646043  0.28472348  1
  Ge  Ge19  1  0.25000000  0.37733685  0.50150572  1
  Ge  Ge20  1  0.25000000  0.62738627  0.99798496  1
  Ge  Ge21  1  0.25000000  0.97646043  0.21527652  1
  Ge  Ge22  1  0.75000000  0.02353957  0.78472348  1
  Ge  Ge23  1  0.25000000  0.12266315  0.00150572  1
  Ge  Ge24  1  0.75000000  0.62525013  0.13777882  1
  Ge  Ge25  1  0.25000000  0.87389007  0.85937182  1
  Ge  Ge26  1  0.25000000  0.87261373  0.49798496  1
  Ge  Ge27  1  0.75000000  0.12738627  0.50201504  1
  Ge  Ge28  1  0.75000000  0.12610993  0.14062818  1
  Ge  Ge29  1  0.75000000  0.62266315  0.49849428  1
  Ge  Ge30  1  0.75000000  0.72647876  0.78501168  1
  Ge  Ge31  1  0.25000000  0.37474987  0.86222118  1
  Ge  Ge32  1  0.25000000  0.22647876  0.71498832  1
  Ge  Ge33  1  0.75000000  0.37261373  0.00201504  1
  Ge  Ge34  1  0.75000000  0.37389007  0.64062818  1
  Ge  Ge35  1  0.25000000  0.52353957  0.71527652  1
  Pt  Pt36  1  0.75000000  0.87774772  0.18719516  1
  Pt  Pt37  1  0.25000000  0.12822376  0.45705928  1
  Pt  Pt38  1  0.75000000  0.87177624  0.54294072  1
  Pt  Pt39  1  0.25000000  0.12225228  0.81280484  1
  Pt  Pt40  1  0.75000000  0.37803841  0.54746417  1
  Pt  Pt41  1  0.75000000  0.37336168  0.18737357  1
  Pt  Pt42  1  0.25000000  0.37774772  0.31280484  1
  Pt  Pt43  1  0.75000000  0.12663832  0.68737357  1
  Pt  Pt44  1  0.25000000  0.87336168  0.31262643  1
  Pt  Pt45  1  0.75000000  0.62225228  0.68719516  1
  Pt  Pt46  1  0.75000000  0.12196159  0.04746417  1
  Pt  Pt47  1  0.25000000  0.62196159  0.45253583  1
  Pt  Pt48  1  0.25000000  0.62663832  0.81262643  1
  Pt  Pt49  1  0.25000000  0.37177624  0.95705928  1
  Pt  Pt50  1  0.75000000  0.62822376  0.04294072  1
  Pt  Pt51  1  0.25000000  0.87803841  0.95253583  1
