# generated using pymatgen
data_NaHSO4
_symmetry_space_group_name_H-M   'P 1'
_cell_length_a   7.49546907
_cell_length_b   5.07687325
_cell_length_c   9.20903894
_cell_angle_alpha   67.34795745
_cell_angle_beta   90.00000000
_cell_angle_gamma   90.00000000
_symmetry_Int_Tables_number   1
_chemical_formula_structural   NaHSO4
_chemical_formula_sum   'Na4 H4 S4 O16'
_cell_volume   323.40418383
_cell_formula_units_Z   4
loop_
 _symmetry_equiv_pos_site_id
 _symmetry_equiv_pos_as_xyz
  1  'x, y, z'
loop_
 _atom_site_type_symbol
 _atom_site_label
 _atom_site_symmetry_multiplicity
 _atom_site_fract_x
 _atom_site_fract_y
 _atom_site_fract_z
 _atom_site_occupancy
  Na  Na0  1  0.00547178  0.98777101  0.29594591  1
  Na  Na1  1  0.49452822  0.98777101  0.79594591  1
  Na  Na2  1  0.99452822  0.01222899  0.70405409  1
  Na  Na3  1  0.50547178  0.01222899  0.20405409  1
  H  H4  1  0.95693527  0.61064743  0.12457170  1
  H  H5  1  0.54306473  0.61064743  0.62457170  1
  H  H6  1  0.04306473  0.38935257  0.87542830  1
  H  H7  1  0.45693527  0.38935257  0.37542830  1
  S  S8  1  0.22503722  0.59445934  0.06259407  1
  S  S9  1  0.27496278  0.59445934  0.56259407  1
  S  S10  1  0.77496278  0.40554066  0.93740593  1
  S  S11  1  0.72503722  0.40554066  0.43740593  1
  O  O12  1  0.24494425  0.29629183  0.16558459  1
  O  O13  1  0.25505575  0.29629183  0.66558459  1
  O  O14  1  0.75505575  0.70370817  0.83441541  1
  O  O15  1  0.74494425  0.70370817  0.33441541  1
  O  O16  1  0.17032435  0.63092950  0.90311886  1
  O  O17  1  0.32967565  0.63092950  0.40311886  1
  O  O18  1  0.82967565  0.36907050  0.09688114  1
  O  O19  1  0.67032435  0.36907050  0.59688114  1
  O  O20  1  0.06725254  0.71757440  0.13136856  1
  O  O21  1  0.43274746  0.71757440  0.63136856  1
  O  O22  1  0.93274746  0.28242560  0.86863144  1
  O  O23  1  0.56725254  0.28242560  0.36863144  1
  O  O24  1  0.37716325  0.77006119  0.05941463  1
  O  O25  1  0.12283675  0.77006119  0.55941463  1
  O  O26  1  0.62283675  0.22993881  0.94058537  1
  O  O27  1  0.87716325  0.22993881  0.44058537  1
