# generated using pymatgen
data_Zr2In5Ni
_symmetry_space_group_name_H-M   'P 1'
_cell_length_a   10.08193800
_cell_length_b   10.08193800
_cell_length_c   6.75245609
_cell_angle_alpha   90.00000000
_cell_angle_beta   90.00000000
_cell_angle_gamma   90.00000000
_symmetry_Int_Tables_number   1
_chemical_formula_structural   Zr2In5Ni
_chemical_formula_sum   'Zr8 In20 Ni4'
_cell_volume   686.35659882
_cell_formula_units_Z   4
loop_
 _symmetry_equiv_pos_site_id
 _symmetry_equiv_pos_as_xyz
  1  'x, y, z'
loop_
 _atom_site_type_symbol
 _atom_site_label
 _atom_site_symmetry_multiplicity
 _atom_site_fract_x
 _atom_site_fract_y
 _atom_site_fract_z
 _atom_site_occupancy
  Zr  Zr0  1  0.19879232  0.80120768  0.00000000  1
  Zr  Zr1  1  0.69879232  0.69879232  0.50000000  1
  Zr  Zr2  1  0.16204911  0.83795089  0.50000000  1
  Zr  Zr3  1  0.33795089  0.33795089  0.00000000  1
  Zr  Zr4  1  0.80120768  0.19879232  0.00000000  1
  Zr  Zr5  1  0.66204911  0.66204911  0.00000000  1
  Zr  Zr6  1  0.83795089  0.16204911  0.50000000  1
  Zr  Zr7  1  0.30120768  0.30120768  0.50000000  1
  In  In8  1  0.20109023  0.55847500  0.72174837  1
  In  In9  1  0.29890977  0.05847500  0.22174837  1
  In  In10  1  0.50000000  0.50000000  0.29716017  1
  In  In11  1  0.44152500  0.79890977  0.72174837  1
  In  In12  1  0.55847500  0.20109023  0.27825163  1
  In  In13  1  0.79890977  0.44152500  0.72174837  1
  In  In14  1  0.94152500  0.70109023  0.77825163  1
  In  In15  1  0.79890977  0.44152500  0.27825163  1
  In  In16  1  0.94152500  0.70109023  0.22174837  1
  In  In17  1  0.29890977  0.05847500  0.77825163  1
  In  In18  1  0.55847500  0.20109023  0.72174837  1
  In  In19  1  0.05847500  0.29890977  0.77825163  1
  In  In20  1  0.00000000  0.00000000  0.79716017  1
  In  In21  1  0.70109023  0.94152500  0.22174837  1
  In  In22  1  0.20109023  0.55847500  0.27825163  1
  In  In23  1  0.44152500  0.79890977  0.27825163  1
  In  In24  1  0.05847500  0.29890977  0.22174837  1
  In  In25  1  0.00000000  0.00000000  0.20283983  1
  In  In26  1  0.70109023  0.94152500  0.77825163  1
  In  In27  1  0.50000000  0.50000000  0.70283983  1
  Ni  Ni28  1  0.11359875  0.11359875  0.50000000  1
  Ni  Ni29  1  0.88640125  0.88640125  0.50000000  1
  Ni  Ni30  1  0.61359875  0.38640125  0.00000000  1
  Ni  Ni31  1  0.38640125  0.61359875  0.00000000  1
