# generated using pymatgen
data_La2GeI2
_symmetry_space_group_name_H-M   'P 1'
_cell_length_a   11.41255440
_cell_length_b   11.41255440
_cell_length_c   11.41255385
_cell_angle_alpha   22.73836539
_cell_angle_beta   22.73836539
_cell_angle_gamma   22.73836507
_symmetry_Int_Tables_number   1
_chemical_formula_structural   La2GeI2
_chemical_formula_sum   'La2 Ge1 I2'
_cell_volume   194.84610567
_cell_formula_units_Z   1
loop_
 _symmetry_equiv_pos_site_id
 _symmetry_equiv_pos_as_xyz
  1  'x, y, z'
loop_
 _atom_site_type_symbol
 _atom_site_label
 _atom_site_symmetry_multiplicity
 _atom_site_fract_x
 _atom_site_fract_y
 _atom_site_fract_z
 _atom_site_occupancy
  La  La0  1  0.61639612  0.61639612  0.61639612  1
  La  La1  1  0.38360388  0.38360388  0.38360388  1
  Ge  Ge2  1  -0.00000000  -0.00000000  0.00000000  1
  I  I3  1  0.77876255  0.77876255  0.77876255  1
  I  I4  1  0.22123745  0.22123745  0.22123745  1
