# generated using pymatgen
data_VHO2
_symmetry_space_group_name_H-M   'P 1'
_cell_length_a   3.08126453
_cell_length_b   4.59156426
_cell_length_c   9.84294236
_cell_angle_alpha   90.00000000
_cell_angle_beta   90.00000000
_cell_angle_gamma   90.00000000
_symmetry_Int_Tables_number   1
_chemical_formula_structural   VHO2
_chemical_formula_sum   'V4 H4 O8'
_cell_volume   139.25621705
_cell_formula_units_Z   4
loop_
 _symmetry_equiv_pos_site_id
 _symmetry_equiv_pos_as_xyz
  1  'x, y, z'
loop_
 _atom_site_type_symbol
 _atom_site_label
 _atom_site_symmetry_multiplicity
 _atom_site_fract_x
 _atom_site_fract_y
 _atom_site_fract_z
 _atom_site_occupancy
  V  V0  1  0.00000000  0.30202604  0.65498732  1
  V  V1  1  0.00000000  0.69797396  0.15498732  1
  V  V2  1  0.50000000  0.19801433  0.36335656  1
  V  V3  1  0.50000000  0.80198567  0.86335656  1
  H  H4  1  0.00000000  0.64920697  0.42321002  1
  H  H5  1  0.00000000  0.35079303  0.92321002  1
  H  H6  1  0.50000000  0.85083067  0.59513794  1
  H  H7  1  0.50000000  0.14916933  0.09513794  1
  O  O8  1  0.00000000  0.95758528  0.30652266  1
  O  O9  1  -0.00000000  0.04241472  0.80652266  1
  O  O10  1  0.50000000  0.54242821  0.71182645  1
  O  O11  1  0.50000000  0.45757179  0.21182645  1
  O  O12  1  0.00000000  0.44593439  0.45434614  1
  O  O13  1  0.00000000  0.55406561  0.95434614  1
  O  O14  1  0.50000000  0.05413974  0.56401293  1
  O  O15  1  0.50000000  0.94586026  0.06401293  1
