# generated using pymatgen
data_Zn7Mo
_symmetry_space_group_name_H-M   'P 1'
_cell_length_a   5.45014074
_cell_length_b   5.45014074
_cell_length_c   5.45014217
_cell_angle_alpha   59.99997391
_cell_angle_beta   59.99994790
_cell_angle_gamma   59.99995648
_symmetry_Int_Tables_number   1
_chemical_formula_structural   Zn7Mo
_chemical_formula_sum   'Zn7 Mo1'
_cell_volume   114.47426615
_cell_formula_units_Z   1
loop_
 _symmetry_equiv_pos_site_id
 _symmetry_equiv_pos_as_xyz
  1  'x, y, z'
loop_
 _atom_site_type_symbol
 _atom_site_label
 _atom_site_symmetry_multiplicity
 _atom_site_fract_x
 _atom_site_fract_y
 _atom_site_fract_z
 _atom_site_occupancy
  Zn  Zn0  1  0.50000000  -0.00000000  0.00000000  1
  Zn  Zn1  1  0.50000000  0.50000000  -0.00000000  1
  Zn  Zn2  1  0.50000000  0.00000000  0.50000000  1
  Zn  Zn3  1  0.00000000  0.50000000  0.50000000  1
  Zn  Zn4  1  0.00000000  -0.00000000  0.50000000  1
  Zn  Zn5  1  0.00000000  0.50000000  -0.00000000  1
  Zn  Zn6  1  0.50000000  0.50000000  0.50000000  1
  Mo  Mo7  1  -0.00000000  0.00000000  0.00000000  1
