# generated using pymatgen
data_CaMg3(CO3)4
_symmetry_space_group_name_H-M   'P 1'
_cell_length_a   6.07056022
_cell_length_b   6.07056022
_cell_length_c   6.07056061
_cell_angle_alpha   103.16660413
_cell_angle_beta   103.16660413
_cell_angle_gamma   103.16660650
_symmetry_Int_Tables_number   1
_chemical_formula_structural   CaMg3(CO3)4
_chemical_formula_sum   'Ca1 Mg3 C4 O12'
_cell_volume   202.66577328
_cell_formula_units_Z   1
loop_
 _symmetry_equiv_pos_site_id
 _symmetry_equiv_pos_as_xyz
  1  'x, y, z'
loop_
 _atom_site_type_symbol
 _atom_site_label
 _atom_site_symmetry_multiplicity
 _atom_site_fract_x
 _atom_site_fract_y
 _atom_site_fract_z
 _atom_site_occupancy
  Ca  Ca0  1  0.00000000  0.00000000  0.00000000  1
  Mg  Mg1  1  0.00000000  0.45542949  0.54457051  1
  Mg  Mg2  1  0.54457051  1.00000000  0.45542949  1
  Mg  Mg3  1  0.45542949  0.54457051  0.00000000  1
  C  C4  1  0.50000000  0.04517138  0.95482862  1
  C  C5  1  0.95482862  0.50000000  0.04517138  1
  C  C6  1  0.04517138  0.95482862  0.50000000  1
  C  C7  1  0.50000000  0.50000000  0.50000000  1
  O  O8  1  0.38068572  0.19435414  0.97368405  1
  O  O9  1  0.02631595  0.80564586  0.61931428  1
  O  O10  1  0.80564586  0.61931428  0.02631595  1
  O  O11  1  0.61931428  0.02631595  0.80564586  1
  O  O12  1  0.63550916  0.36449084  0.50000000  1
  O  O13  1  0.36449084  0.50000000  0.63550916  1
  O  O14  1  0.50000000  0.63550916  0.36449084  1
  O  O15  1  0.90917734  0.09082266  0.50000000  1
  O  O16  1  0.09082266  0.50000000  0.90917734  1
  O  O17  1  0.50000000  0.90917734  0.09082266  1
  O  O18  1  0.19435414  0.97368405  0.38068572  1
  O  O19  1  0.97368405  0.38068572  0.19435414  1
