# generated using pymatgen
data_Gd2AlCo2
_symmetry_space_group_name_H-M   'P 1'
_cell_length_a   5.48240123
_cell_length_b   5.48240123
_cell_length_c   5.48240123
_cell_angle_alpha   135.48377453
_cell_angle_beta   121.70273073
_cell_angle_gamma   76.19819025
_symmetry_Int_Tables_number   1
_chemical_formula_structural   Gd2AlCo2
_chemical_formula_sum   'Gd2 Al1 Co2'
_cell_volume   95.69756223
_cell_formula_units_Z   1
loop_
 _symmetry_equiv_pos_site_id
 _symmetry_equiv_pos_as_xyz
  1  'x, y, z'
loop_
 _atom_site_type_symbol
 _atom_site_label
 _atom_site_symmetry_multiplicity
 _atom_site_fract_x
 _atom_site_fract_y
 _atom_site_fract_z
 _atom_site_occupancy
  Gd  Gd0  1  0.70487005  0.20487005  0.50000000  1
  Gd  Gd1  1  0.29512995  0.79512995  0.50000000  1
  Al  Al2  1  -0.00000000  -0.00000000  0.00000000  1
  Co  Co3  1  0.28529158  0.50000000  0.78529158  1
  Co  Co4  1  0.71470842  0.50000000  0.21470842  1
