# generated using pymatgen
data_CaH2CClO3
_symmetry_space_group_name_H-M   'P 1'
_cell_length_a   6.11947947
_cell_length_b   6.11947947
_cell_length_c   6.93930476
_cell_angle_alpha   58.24155215
_cell_angle_beta   58.24155215
_cell_angle_gamma   73.56320857
_symmetry_Int_Tables_number   1
_chemical_formula_structural   CaH2CClO3
_chemical_formula_sum   'Ca2 H4 C2 Cl2 O6'
_cell_volume   187.86625780
_cell_formula_units_Z   2
loop_
 _symmetry_equiv_pos_site_id
 _symmetry_equiv_pos_as_xyz
  1  'x, y, z'
loop_
 _atom_site_type_symbol
 _atom_site_label
 _atom_site_symmetry_multiplicity
 _atom_site_fract_x
 _atom_site_fract_y
 _atom_site_fract_z
 _atom_site_occupancy
  Ca  Ca0  1  0.13543165  0.13543165  0.61459407  1
  Ca  Ca1  1  0.86456835  0.86456835  0.38540593  1
  H  H2  1  0.18263031  0.63409131  0.03112767  1
  H  H3  1  0.36590869  0.81737069  0.96887233  1
  H  H4  1  0.81737069  0.36590869  0.96887233  1
  H  H5  1  0.63409131  0.18263031  0.03112767  1
  C  C6  1  0.60576791  0.39423209  0.50000000  1
  C  C7  1  0.39423209  0.60576791  0.50000000  1
  Cl  Cl8  1  0.76312611  0.76312611  0.87968046  1
  Cl  Cl9  1  0.23687389  0.23687389  0.12031954  1
  O  O10  1  0.57149792  0.20588902  0.49229075  1
  O  O11  1  0.79411098  0.42850208  0.50770925  1
  O  O12  1  0.42850208  0.79411098  0.50770925  1
  O  O13  1  0.20588902  0.57149792  0.49229075  1
  O  O14  1  0.19147299  0.80852701  0.00000000  1
  O  O15  1  0.80852701  0.19147299  0.00000000  1
