# generated using pymatgen
data_AlH4NF4
_symmetry_space_group_name_H-M   'P 1'
_cell_length_a   5.01458750
_cell_length_b   5.01458750
_cell_length_c   12.61717746
_cell_angle_alpha   90.00000000
_cell_angle_beta   90.00000000
_cell_angle_gamma   90.00000000
_symmetry_Int_Tables_number   1
_chemical_formula_structural   AlH4NF4
_chemical_formula_sum   'Al4 H16 N4 F16'
_cell_volume   317.27265214
_cell_formula_units_Z   4
loop_
 _symmetry_equiv_pos_site_id
 _symmetry_equiv_pos_as_xyz
  1  'x, y, z'
loop_
 _atom_site_type_symbol
 _atom_site_label
 _atom_site_symmetry_multiplicity
 _atom_site_fract_x
 _atom_site_fract_y
 _atom_site_fract_z
 _atom_site_occupancy
  Al  Al0  1  0.00000000  0.50000000  0.50000000  1
  Al  Al1  1  0.50000000  -0.00000000  0.00000000  1
  Al  Al2  1  0.50000000  -0.00000000  0.50000000  1
  Al  Al3  1  0.00000000  0.50000000  0.00000000  1
  H  H4  1  0.66879894  0.49869912  0.70338765  1
  H  H5  1  0.49869912  0.33120106  0.20338765  1
  H  H6  1  0.83120106  0.99869912  0.70338765  1
  H  H7  1  0.99869912  0.16879894  0.20338765  1
  H  H8  1  0.66879894  0.49869912  0.29661235  1
  H  H9  1  0.49869912  0.33120106  0.79661235  1
  H  H10  1  0.83120106  0.99869912  0.29661235  1
  H  H11  1  0.99869912  0.16879894  0.79661235  1
  H  H12  1  0.33120106  0.50130088  0.29661235  1
  H  H13  1  0.50130088  0.66879894  0.79661235  1
  H  H14  1  0.16879894  0.00130088  0.29661235  1
  H  H15  1  0.00130088  0.83120106  0.79661235  1
  H  H16  1  0.33120106  0.50130088  0.70338765  1
  H  H17  1  0.50130088  0.66879894  0.20338765  1
  H  H18  1  0.16879894  0.00130088  0.70338765  1
  H  H19  1  0.00130088  0.83120106  0.20338765  1
  N  N20  1  0.50000000  0.50000000  0.75000000  1
  N  N21  1  0.50000000  0.50000000  0.25000000  1
  N  N22  1  0.00000000  -0.00000000  0.75000000  1
  N  N23  1  0.00000000  -0.00000000  0.25000000  1
  F  F24  1  0.00000000  0.50000000  0.64078048  1
  F  F25  1  0.50000000  -0.00000000  0.14078048  1
  F  F26  1  0.50000000  -0.00000000  0.64078048  1
  F  F27  1  0.00000000  0.50000000  0.14078048  1
  F  F28  1  0.00000000  0.50000000  0.35921952  1
  F  F29  1  0.50000000  -0.00000000  0.85921952  1
  F  F30  1  0.50000000  -0.00000000  0.35921952  1
  F  F31  1  0.00000000  0.50000000  0.85921952  1
  F  F32  1  0.19984956  0.19949768  0.50000000  1
  F  F33  1  0.19949768  0.80015044  0.00000000  1
  F  F34  1  0.30015044  0.69949768  0.50000000  1
  F  F35  1  0.69949768  0.69984956  0.00000000  1
  F  F36  1  0.80015044  0.80050232  0.50000000  1
  F  F37  1  0.80050232  0.19984956  0.00000000  1
  F  F38  1  0.69984956  0.30050232  0.50000000  1
  F  F39  1  0.30050232  0.30015044  0.00000000  1
