# generated using pymatgen
data_La2Ni5C3
_symmetry_space_group_name_H-M   'P 1'
_cell_length_a   8.26794277
_cell_length_b   8.26793059
_cell_length_c   4.02632792
_cell_angle_alpha   90.00001074
_cell_angle_beta   90.00001418
_cell_angle_gamma   90.00059313
_symmetry_Int_Tables_number   1
_chemical_formula_structural   La2Ni5C3
_chemical_formula_sum   'La4 Ni10 C6'
_cell_volume   275.23485218
_cell_formula_units_Z   2
loop_
 _symmetry_equiv_pos_site_id
 _symmetry_equiv_pos_as_xyz
  1  'x, y, z'
loop_
 _atom_site_type_symbol
 _atom_site_label
 _atom_site_symmetry_multiplicity
 _atom_site_fract_x
 _atom_site_fract_y
 _atom_site_fract_z
 _atom_site_occupancy
  La  La0  1  0.33776152  0.16221201  0.00000077  1
  La  La1  1  0.66223776  0.83778788  0.00000036  1
  La  La2  1  0.16221064  0.66223524  0.00000045  1
  La  La3  1  0.83779111  0.33776511  -0.00000038  1
  Ni  Ni4  1  0.92487433  0.78741150  0.50000152  1
  Ni  Ni5  1  0.71258955  0.57511367  0.49999916  1
  Ni  Ni6  1  0.42488382  0.71259129  0.49999967  1
  Ni  Ni7  1  0.28741028  0.42488629  0.49999996  1
  Ni  Ni8  1  0.57511561  0.28740856  0.49999973  1
  Ni  Ni9  1  0.78741014  0.07512680  0.50000009  1
  Ni  Ni10  1  0.07512608  0.21258843  0.49999897  1
  Ni  Ni11  1  0.21258965  0.92487369  0.49999995  1
  Ni  Ni12  1  0.49999937  0.49999976  0.00000009  1
  Ni  Ni13  1  0.00000025  -0.00000016  -0.00000021  1
  C  C14  1  0.44180698  0.94179745  0.50000013  1
  C  C15  1  0.05820285  0.44180723  0.49999973  1
  C  C16  1  0.94179777  0.55819269  0.49999999  1
  C  C17  1  0.49999968  0.50000008  0.50000016  1
  C  C18  1  0.55819256  0.05820229  0.50000016  1
  C  C19  1  0.00000007  0.00000018  0.49999969  1
