# generated using pymatgen
data_YbPaO4
_symmetry_space_group_name_H-M   'P 1'
_cell_length_a   6.50496786
_cell_length_b   6.50496786
_cell_length_c   6.50496786
_cell_angle_alpha   131.89749894
_cell_angle_beta   131.89749894
_cell_angle_gamma   70.39096442
_symmetry_Int_Tables_number   1
_chemical_formula_structural   YbPaO4
_chemical_formula_sum   'Yb2 Pa2 O8'
_cell_volume   149.44735478
_cell_formula_units_Z   2
loop_
 _symmetry_equiv_pos_site_id
 _symmetry_equiv_pos_as_xyz
  1  'x, y, z'
loop_
 _atom_site_type_symbol
 _atom_site_label
 _atom_site_symmetry_multiplicity
 _atom_site_fract_x
 _atom_site_fract_y
 _atom_site_fract_z
 _atom_site_occupancy
  Yb  Yb0  1  0.00000000  0.00000000  0.00000000  1
  Yb  Yb1  1  0.75000000  0.25000000  0.50000000  1
  Pa  Pa2  1  0.50000000  0.50000000  0.00000000  1
  Pa  Pa3  1  0.25000000  0.75000000  0.50000000  1
  O  O4  1  0.37500000  0.37993990  0.50493990  1
  O  O5  1  0.87500000  0.87006010  0.49506010  1
  O  O6  1  0.62006010  0.12500000  0.99506010  1
  O  O7  1  0.87500000  0.37993990  0.00493990  1
  O  O8  1  0.12993990  0.62500000  0.00493990  1
  O  O9  1  0.37500000  0.87006010  0.99506010  1
  O  O10  1  0.12993990  0.12500000  0.50493990  1
  O  O11  1  0.62006010  0.62500000  0.49506010  1
