# generated using pymatgen
data_Mg(FeO2)2
_symmetry_space_group_name_H-M   'P 1'
_cell_length_a   5.97701778
_cell_length_b   5.97701601
_cell_length_c   5.97705470
_cell_angle_alpha   120.31397506
_cell_angle_beta   120.31408361
_cell_angle_gamma   89.45653566
_symmetry_Int_Tables_number   1
_chemical_formula_structural   Mg(FeO2)2
_chemical_formula_sum   'Mg2 Fe4 O8'
_cell_volume   150.26411097
_cell_formula_units_Z   2
loop_
 _symmetry_equiv_pos_site_id
 _symmetry_equiv_pos_as_xyz
  1  'x, y, z'
loop_
 _atom_site_type_symbol
 _atom_site_label
 _atom_site_symmetry_multiplicity
 _atom_site_fract_x
 _atom_site_fract_y
 _atom_site_fract_z
 _atom_site_occupancy
  Mg  Mg0  1  0.37500842  0.12499445  0.25000036  1
  Mg  Mg1  1  0.62499268  0.87500618  0.75000020  1
  Fe  Fe2  1  -0.00000038  0.49999992  0.99999936  1
  Fe  Fe3  1  0.00000031  -0.00000006  0.49999984  1
  Fe  Fe4  1  -0.00000018  0.49999951  0.49999922  1
  Fe  Fe5  1  0.50000025  0.50000012  0.00000078  1
  O  O6  1  0.21893975  0.73945872  0.47947733  1
  O  O7  1  0.24002455  0.26053778  0.97948324  1
  O  O8  1  0.23946201  0.71894346  0.97948003  1
  O  O9  1  0.23946324  0.25997659  0.52051670  1
  O  O10  1  0.76053730  0.28105561  0.02051985  1
  O  O11  1  0.76053610  0.74002308  0.47948446  1
  O  O12  1  0.78105977  0.26054071  0.52052234  1
  O  O13  1  0.75997519  0.73946194  0.02051729  1
