# generated using pymatgen
data_Ca5P3O12F
_symmetry_space_group_name_H-M   'P 1'
_cell_length_a   9.36188738
_cell_length_b   9.36188739
_cell_length_c   6.87865062
_cell_angle_alpha   90.00000000
_cell_angle_beta   90.00000000
_cell_angle_gamma   119.99999870
_symmetry_Int_Tables_number   1
_chemical_formula_structural   Ca5P3O12F
_chemical_formula_sum   'Ca10 P6 O24 F2'
_cell_volume   522.10844045
_cell_formula_units_Z   2
loop_
 _symmetry_equiv_pos_site_id
 _symmetry_equiv_pos_as_xyz
  1  'x, y, z'
loop_
 _atom_site_type_symbol
 _atom_site_label
 _atom_site_symmetry_multiplicity
 _atom_site_fract_x
 _atom_site_fract_y
 _atom_site_fract_z
 _atom_site_occupancy
  Ca  Ca0  1  0.66666700  0.33333300  0.50126573  1
  Ca  Ca1  1  0.33333300  0.66666700  0.00126573  1
  Ca  Ca2  1  0.33333300  0.66666700  0.49952237  1
  Ca  Ca3  1  0.66666700  0.33333300  0.99952237  1
  Ca  Ca4  1  0.99348955  0.24208633  0.75072350  1
  Ca  Ca5  1  0.75791367  0.75140422  0.75072350  1
  Ca  Ca6  1  0.24859578  0.00651045  0.75072350  1
  Ca  Ca7  1  0.00651045  0.75791367  0.25072350  1
  Ca  Ca8  1  0.24208633  0.24859578  0.25072350  1
  Ca  Ca9  1  0.75140422  0.99348955  0.25072350  1
  P  P10  1  0.36848207  0.39867545  0.75072288  1
  P  P11  1  0.60132455  0.96980662  0.75072288  1
  P  P12  1  0.03019338  0.63151793  0.75072288  1
  P  P13  1  0.63151793  0.60132455  0.25072288  1
  P  P14  1  0.39867545  0.03019338  0.25072288  1
  P  P15  1  0.96980662  0.36848207  0.25072288  1
  O  O16  1  0.48436777  0.32710958  0.75096366  1
  O  O17  1  0.67289042  0.15725718  0.75096366  1
  O  O18  1  0.84274282  0.51563223  0.75096366  1
  O  O19  1  0.51563223  0.67289042  0.25096366  1
  O  O20  1  0.32710958  0.84274282  0.25096366  1
  O  O21  1  0.15725718  0.48436777  0.25096366  1
  O  O22  1  0.25573326  0.34083164  0.57125168  1
  O  O23  1  0.65916836  0.91490161  0.57125168  1
  O  O24  1  0.08509839  0.74426674  0.57125168  1
  O  O25  1  0.74426674  0.65916836  0.07125168  1
  O  O26  1  0.34083164  0.08509839  0.07125168  1
  O  O27  1  0.91490161  0.25573326  0.07125168  1
  O  O28  1  0.74339624  0.65727111  0.43092547  1
  O  O29  1  0.34272889  0.08612414  0.43092547  1
  O  O30  1  0.91387586  0.25660376  0.43092547  1
  O  O31  1  0.25660376  0.34272889  0.93092547  1
  O  O32  1  0.65727111  0.91387586  0.93092547  1
  O  O33  1  0.08612414  0.74339624  0.93092547  1
  O  O34  1  0.46674218  0.58891814  0.74972800  1
  O  O35  1  0.41108186  0.87782404  0.74972800  1
  O  O36  1  0.12217596  0.53325782  0.74972800  1
  O  O37  1  0.53325782  0.41108186  0.24972800  1
  O  O38  1  0.58891814  0.12217596  0.24972800  1
  O  O39  1  0.87782404  0.46674218  0.24972800  1
  F  F40  1  0.00000000  0.00000000  0.75626634  1
  F  F41  1  0.00000000  0.00000000  0.25626634  1
