# generated using pymatgen
data_ZnCu2GeS4
_symmetry_space_group_name_H-M   'P 1'
_cell_length_a   5.26859072
_cell_length_b   5.26859050
_cell_length_c   6.47493681
_cell_angle_alpha   114.00679100
_cell_angle_beta   114.00678861
_cell_angle_gamma   89.99999718
_symmetry_Int_Tables_number   1
_chemical_formula_structural   ZnCu2GeS4
_chemical_formula_sum   'Zn1 Cu2 Ge1 S4'
_cell_volume   147.00182358
_cell_formula_units_Z   1
loop_
 _symmetry_equiv_pos_site_id
 _symmetry_equiv_pos_as_xyz
  1  'x, y, z'
loop_
 _atom_site_type_symbol
 _atom_site_label
 _atom_site_symmetry_multiplicity
 _atom_site_fract_x
 _atom_site_fract_y
 _atom_site_fract_z
 _atom_site_occupancy
  Zn  Zn0  1  0.00000000  -0.00000000  0.00000000  1
  Cu  Cu1  1  0.75000000  0.25000000  0.50000000  1
  Cu  Cu2  1  0.25000000  0.75000000  0.50000000  1
  Ge  Ge3  1  0.50000000  0.50000000  0.00000000  1
  S  S4  1  0.87012136  0.87012136  0.25470216  1
  S  S5  1  0.61542020  0.12987864  0.74529784  1
  S  S6  1  0.38457980  0.38457980  0.25470216  1
  S  S7  1  0.12987864  0.61542020  0.74529784  1
