# generated using pymatgen
data_Pr2Pd2Pb
_symmetry_space_group_name_H-M   'P 1'
_cell_length_a   8.02933432
_cell_length_b   8.02933432
_cell_length_c   3.83138151
_cell_angle_alpha   90.00000000
_cell_angle_beta   90.00000000
_cell_angle_gamma   90.00001484
_symmetry_Int_Tables_number   1
_chemical_formula_structural   Pr2Pd2Pb
_chemical_formula_sum   'Pr4 Pd4 Pb2'
_cell_volume   247.00996909
_cell_formula_units_Z   2
loop_
 _symmetry_equiv_pos_site_id
 _symmetry_equiv_pos_as_xyz
  1  'x, y, z'
loop_
 _atom_site_type_symbol
 _atom_site_label
 _atom_site_symmetry_multiplicity
 _atom_site_fract_x
 _atom_site_fract_y
 _atom_site_fract_z
 _atom_site_occupancy
  Pr  Pr0  1  0.32331448  0.82331448  0.50000000  1
  Pr  Pr1  1  0.67668552  0.17668552  0.50000000  1
  Pr  Pr2  1  0.82331648  0.67668352  0.50000000  1
  Pr  Pr3  1  0.17668352  0.32331648  0.50000000  1
  Pd  Pd4  1  0.87761074  0.37761074  -0.00000000  1
  Pd  Pd5  1  0.62238926  0.87761074  -0.00000000  1
  Pd  Pd6  1  0.37761074  0.12238926  0.00000000  1
  Pd  Pd7  1  0.12238926  0.62238926  0.00000000  1
  Pb  Pb8  1  0.50000000  0.50000000  -0.00000000  1
  Pb  Pb9  1  -0.00000000  0.00000000  -0.00000000  1
