# generated using pymatgen
data_Pr7C3I10
_symmetry_space_group_name_H-M   'P 1'
_cell_length_a   9.75673762
_cell_length_b   11.80716968
_cell_length_c   14.02367276
_cell_angle_alpha   79.65648381
_cell_angle_beta   71.60161168
_cell_angle_gamma   66.07063242
_symmetry_Int_Tables_number   1
_chemical_formula_structural   Pr7C3I10
_chemical_formula_sum   'Pr14 C6 I20'
_cell_volume   1398.70464786
_cell_formula_units_Z   2
loop_
 _symmetry_equiv_pos_site_id
 _symmetry_equiv_pos_as_xyz
  1  'x, y, z'
loop_
 _atom_site_type_symbol
 _atom_site_label
 _atom_site_symmetry_multiplicity
 _atom_site_fract_x
 _atom_site_fract_y
 _atom_site_fract_z
 _atom_site_occupancy
  Pr  Pr0  1  0.62313968  0.07213060  0.35917490  1
  Pr  Pr1  1  0.86715045  0.72340338  0.41334117  1
  Pr  Pr2  1  0.95225805  0.57937350  0.16608329  1
  Pr  Pr3  1  0.04868559  0.88439784  0.17580663  1
  Pr  Pr4  1  0.25431417  0.04893631  0.92093242  1
  Pr  Pr5  1  0.74568583  0.95106369  0.07906758  1
  Pr  Pr6  1  0.04774195  0.42062650  0.83391671  1
  Pr  Pr7  1  0.54064827  0.79390196  0.30739866  1
  Pr  Pr8  1  0.16740669  0.75715644  0.89977369  1
  Pr  Pr9  1  0.13284955  0.27659662  0.58665883  1
  Pr  Pr10  1  0.95131441  0.11560216  0.82419337  1
  Pr  Pr11  1  0.83259331  0.24284356  0.10022631  1
  Pr  Pr12  1  0.37686032  0.92786940  0.64082510  1
  Pr  Pr13  1  0.45935173  0.20609804  0.69260134  1
  C  C14  1  0.16794155  0.22493177  0.77036445  1
  C  C15  1  0.24422148  0.11160205  0.72500083  1
  C  C16  1  0.96186605  0.05654970  0.02264393  1
  C  C17  1  0.75577852  0.88839795  0.27499917  1
  C  C18  1  0.03813395  0.94345030  0.97735607  1
  C  C19  1  0.83205845  0.77506823  0.22963555  1
  I  I20  1  0.07015758  0.86788099  0.69547905  1
  I  I21  1  0.60508140  0.07746047  0.87776271  1
  I  I22  1  0.50139325  0.22100368  0.16992989  1
  I  I23  1  0.28279148  0.60574145  0.09140572  1
  I  I24  1  0.95780278  0.56536230  0.63720317  1
  I  I25  1  0.39491860  0.92253953  0.12223729  1
  I  I26  1  0.49860675  0.77899632  0.83007011  1
  I  I27  1  0.92984242  0.13211901  0.30452095  1
  I  I28  1  0.56489015  0.65698966  0.52030593  1
  I  I29  1  0.14369721  0.30528414  0.04235400  1
  I  I30  1  0.04219722  0.43463770  0.36279683  1
  I  I31  1  0.43510985  0.34301034  0.47969407  1
  I  I32  1  0.71453606  0.95301395  0.56875575  1
  I  I33  1  0.28546394  0.04698605  0.43124425  1
  I  I34  1  0.64367727  0.52452843  0.22448186  1
  I  I35  1  0.71720852  0.39425855  0.90859428  1
  I  I36  1  0.81388953  0.24526133  0.62557365  1
  I  I37  1  0.35632273  0.47547157  0.77551814  1
  I  I38  1  0.85630279  0.69471586  0.95764600  1
  I  I39  1  0.18611047  0.75473867  0.37442635  1
