# generated using pymatgen
data_Ca(H8O5)2
_symmetry_space_group_name_H-M   'P 1'
_cell_length_a   6.02228307
_cell_length_b   6.08206338
_cell_length_c   11.18630638
_cell_angle_alpha   99.86781422
_cell_angle_beta   89.90907583
_cell_angle_gamma   89.98887775
_symmetry_Int_Tables_number   1
_chemical_formula_structural   Ca(H8O5)2
_chemical_formula_sum   'Ca2 H32 O20'
_cell_volume   403.66877777
_cell_formula_units_Z   2
loop_
 _symmetry_equiv_pos_site_id
 _symmetry_equiv_pos_as_xyz
  1  'x, y, z'
loop_
 _atom_site_type_symbol
 _atom_site_label
 _atom_site_symmetry_multiplicity
 _atom_site_fract_x
 _atom_site_fract_y
 _atom_site_fract_z
 _atom_site_occupancy
  Ca  Ca0  1  0.00484715  0.99342656  0.50835568  1
  Ca  Ca1  1  0.99665921  0.98718731  0.00787312  1
  H  H2  1  0.43693514  0.91795240  0.37432288  1
  H  H3  1  0.37117423  0.67889815  0.39328524  1
  H  H4  1  0.70857648  0.02794297  0.29056149  1
  H  H5  1  0.62538349  0.22631864  0.39530258  1
  H  H6  1  0.03389844  0.36939196  0.36745638  1
  H  H7  1  0.28162022  0.33054815  0.39775142  1
  H  H8  1  0.87937111  0.62238057  0.29680232  1
  H  H9  1  0.72456104  0.57022136  0.40176389  1
  H  H10  1  0.29363939  0.02506258  0.79072993  1
  H  H11  1  0.37677944  0.22151274  0.89631693  1
  H  H12  1  0.56465520  0.91253744  0.87452340  1
  H  H13  1  0.63079068  0.67376237  0.89369776  1
  H  H14  1  0.12362163  0.60743634  0.79673115  1
  H  H15  1  0.27767822  0.56449161  0.90324514  1
  H  H16  1  0.96770473  0.36401619  0.86852039  1
  H  H17  1  0.71989120  0.32485305  0.89830768  1
  H  H18  1  0.75452630  0.20460636  0.71714722  1
  H  H19  1  0.62852373  0.31202842  0.61243232  1
  H  H20  1  0.38458476  0.76404692  0.61075948  1
  H  H21  1  0.45813275  0.01401810  0.63078111  1
  H  H22  1  0.82209647  0.77950854  0.72610029  1
  H  H23  1  0.73030353  0.64921213  0.60560222  1
  H  H24  1  0.27866166  0.41051764  0.60639950  1
  H  H25  1  0.02919117  0.47891166  0.62568537  1
  H  H26  1  0.54291818  0.00838579  0.13099222  1
  H  H27  1  0.61637283  0.75846101  0.11155519  1
  H  H28  1  0.24589534  0.20082741  0.21731455  1
  H  H29  1  0.37277543  0.30621411  0.11246497  1
  H  H30  1  0.72241900  0.40405520  0.10676272  1
  H  H31  1  0.97172808  0.47122312  0.12695672  1
  H  H32  1  0.18060833  0.77863837  0.22675312  1
  H  H33  1  0.26959961  0.64367322  0.10676334  1
  O  O34  1  0.50324597  0.46824733  0.43392893  1
  O  O35  1  0.49891739  0.46321452  0.93526429  1
  O  O36  1  0.50825727  0.51893457  0.56836531  1
  O  O37  1  0.49252745  0.51381140  0.06967175  1
  O  O38  1  0.30695021  0.81820320  0.37040814  1
  O  O39  1  0.68795166  0.07116948  0.37890529  1
  O  O40  1  0.14350392  0.24877443  0.36435423  1
  O  O41  1  0.87746373  0.62981758  0.38402493  1
  O  O42  1  0.31384313  0.06662485  0.87921433  1
  O  O43  1  0.69472742  0.81279006  0.87039349  1
  O  O44  1  0.12504707  0.62331496  0.88448408  1
  O  O45  1  0.85770656  0.24347434  0.86373710  1
  O  O46  1  0.69205658  0.17078023  0.63421030  1
  O  O47  1  0.32488971  0.91914215  0.63470900  1
  O  O48  1  0.86949714  0.72837517  0.64124509  1
  O  O49  1  0.13129606  0.35418746  0.62987176  1
  O  O50  1  0.67622194  0.91355800  0.13483027  1
  O  O51  1  0.30863531  0.16519845  0.13439304  1
  O  O52  1  0.86962614  0.34589107  0.12887984  1
  O  O53  1  0.13087716  0.72380835  0.14270905  1
