# generated using pymatgen
data_NaErF4
_symmetry_space_group_name_H-M   'P 1'
_cell_length_a   7.56696907
_cell_length_b   9.96834590
_cell_length_c   6.48864083
_cell_angle_alpha   29.26617225
_cell_angle_beta   54.30614057
_cell_angle_gamma   40.59291029
_symmetry_Int_Tables_number   1
_chemical_formula_structural   NaErF4
_chemical_formula_sum   'Na2 Er2 F8'
_cell_volume   150.81455588
_cell_formula_units_Z   2
loop_
 _symmetry_equiv_pos_site_id
 _symmetry_equiv_pos_as_xyz
  1  'x, y, z'
loop_
 _atom_site_type_symbol
 _atom_site_label
 _atom_site_symmetry_multiplicity
 _atom_site_fract_x
 _atom_site_fract_y
 _atom_site_fract_z
 _atom_site_occupancy
  Na  Na0  1  0.00007286  0.99981065  0.00025108  1
  Na  Na1  1  0.74992784  0.50019055  0.99974592  1
  Er  Er2  1  0.50000133  0.99999604  -0.00000511  1
  Er  Er3  1  0.24999875  0.50000493  0.00000373  1
  F  F4  1  0.14293290  0.98206391  0.26788052  1
  F  F5  1  0.60704226  0.01795131  0.23206138  1
  F  F6  1  0.37495700  0.01797771  0.73203209  1
  F  F7  1  0.37504457  0.48200878  0.26798263  1
  F  F8  1  0.14295981  0.48205404  0.76792714  1
  F  F9  1  0.87504233  0.98203790  0.76798026  1
  F  F10  1  0.87495737  0.51795951  0.23202489  1
  F  F11  1  0.60706196  0.51794466  0.73211449  1
