# generated using pymatgen
data_KNd3Te8
_symmetry_space_group_name_H-M   'P 1'
_cell_length_a   12.96384885
_cell_length_b   9.02266452
_cell_length_c   14.20886307
_cell_angle_alpha   80.70340361
_cell_angle_beta   90.00000000
_cell_angle_gamma   90.00000000
_symmetry_Int_Tables_number   1
_chemical_formula_structural   KNd3Te8
_chemical_formula_sum   'K4 Nd12 Te32'
_cell_volume   1640.15911727
_cell_formula_units_Z   4
loop_
 _symmetry_equiv_pos_site_id
 _symmetry_equiv_pos_as_xyz
  1  'x, y, z'
loop_
 _atom_site_type_symbol
 _atom_site_label
 _atom_site_symmetry_multiplicity
 _atom_site_fract_x
 _atom_site_fract_y
 _atom_site_fract_z
 _atom_site_occupancy
  K  K0  1  0.59211703  0.74242842  0.53477563  1
  K  K1  1  0.40788297  0.25757158  0.46522437  1
  K  K2  1  0.09211703  0.75757158  0.46522437  1
  K  K3  1  0.90788297  0.24242842  0.53477563  1
  Nd  Nd4  1  0.58405083  0.40562141  0.85156775  1
  Nd  Nd5  1  0.75086222  0.08566559  0.15392176  1
  Nd  Nd6  1  0.25086222  0.41433441  0.84607824  1
  Nd  Nd7  1  0.91594917  0.90562141  0.85156775  1
  Nd  Nd8  1  0.91522984  0.42056279  0.84994688  1
  Nd  Nd9  1  0.24913778  0.91433441  0.84607824  1
  Nd  Nd10  1  0.08477016  0.57943721  0.15005312  1
  Nd  Nd11  1  0.41594917  0.59437859  0.14843225  1
  Nd  Nd12  1  0.08405083  0.09437859  0.14843225  1
  Nd  Nd13  1  0.58477016  0.92056279  0.84994688  1
  Nd  Nd14  1  0.74913778  0.58566559  0.15392176  1
  Nd  Nd15  1  0.41522984  0.07943721  0.15005312  1
  Te  Te16  1  0.09648304  0.29006371  0.32875785  1
  Te  Te17  1  0.08540876  0.64485394  0.91444386  1
  Te  Te18  1  0.42003065  0.64968092  0.91294862  1
  Te  Te19  1  0.07996935  0.14968092  0.91294862  1
  Te  Te20  1  0.24541132  0.85471544  0.08190336  1
  Te  Te21  1  0.90351696  0.70993629  0.67124215  1
  Te  Te22  1  0.25458868  0.35471544  0.08190336  1
  Te  Te23  1  0.75051864  0.95911516  0.67316409  1
  Te  Te24  1  0.57996935  0.35031908  0.08705138  1
  Te  Te25  1  0.22446813  0.21167474  0.66165085  1
  Te  Te26  1  0.41459124  0.14485394  0.91444386  1
  Te  Te27  1  0.42062763  0.47108646  0.66875993  1
  Te  Te28  1  0.07937237  0.97108646  0.66875993  1
  Te  Te29  1  0.27553187  0.71167474  0.66165085  1
  Te  Te30  1  0.74948136  0.45911516  0.67316409  1
  Te  Te31  1  0.08047079  0.44942059  0.66811675  1
  Te  Te32  1  0.77553187  0.78832526  0.33834915  1
  Te  Te33  1  0.25051864  0.54088484  0.32683591  1
  Te  Te34  1  0.59648304  0.20993629  0.67124215  1
  Te  Te35  1  0.91952921  0.55057941  0.33188325  1
  Te  Te36  1  0.74541132  0.64528456  0.91809664  1
  Te  Te37  1  0.57937237  0.52891354  0.33124007  1
  Te  Te38  1  0.72446813  0.28832526  0.33834915  1
  Te  Te39  1  0.58540876  0.85514606  0.08555614  1
  Te  Te40  1  0.24948136  0.04088484  0.32683591  1
  Te  Te41  1  0.58047079  0.05057941  0.33188325  1
  Te  Te42  1  0.75458868  0.14528456  0.91809664  1
  Te  Te43  1  0.92062763  0.02891354  0.33124007  1
  Te  Te44  1  0.41952921  0.94942059  0.66811675  1
  Te  Te45  1  0.40351696  0.79006371  0.32875785  1
  Te  Te46  1  0.92003065  0.85031908  0.08705138  1
  Te  Te47  1  0.91459124  0.35514606  0.08555614  1
