# generated using pymatgen
data_La(FeP)2
_symmetry_space_group_name_H-M   'P 1'
_cell_length_a   3.78576540
_cell_length_b   3.78576494
_cell_length_c   6.12586990
_cell_angle_alpha   107.99887082
_cell_angle_beta   107.99886393
_cell_angle_gamma   89.99999691
_symmetry_Int_Tables_number   1
_chemical_formula_structural   La(FeP)2
_chemical_formula_sum   'La1 Fe2 P2'
_cell_volume   78.96964286
_cell_formula_units_Z   1
loop_
 _symmetry_equiv_pos_site_id
 _symmetry_equiv_pos_as_xyz
  1  'x, y, z'
loop_
 _atom_site_type_symbol
 _atom_site_label
 _atom_site_symmetry_multiplicity
 _atom_site_fract_x
 _atom_site_fract_y
 _atom_site_fract_z
 _atom_site_occupancy
  La  La0  1  0.00000000  -0.00000000  0.00000000  1
  Fe  Fe1  1  0.25000000  0.75000000  0.50000000  1
  Fe  Fe2  1  0.75000000  0.25000000  0.50000000  1
  P  P3  1  0.65225744  0.65225744  0.30451488  1
  P  P4  1  0.34774256  0.34774256  0.69548512  1
