# generated using pymatgen
data_Sm2Pd2Pb
_symmetry_space_group_name_H-M   'P 1'
_cell_length_a   7.92686721
_cell_length_b   7.92686721
_cell_length_c   3.73312684
_cell_angle_alpha   90.00000000
_cell_angle_beta   90.00000000
_cell_angle_gamma   90.00000000
_symmetry_Int_Tables_number   1
_chemical_formula_structural   Sm2Pd2Pb
_chemical_formula_sum   'Sm4 Pd4 Pb2'
_cell_volume   234.57186033
_cell_formula_units_Z   2
loop_
 _symmetry_equiv_pos_site_id
 _symmetry_equiv_pos_as_xyz
  1  'x, y, z'
loop_
 _atom_site_type_symbol
 _atom_site_label
 _atom_site_symmetry_multiplicity
 _atom_site_fract_x
 _atom_site_fract_y
 _atom_site_fract_z
 _atom_site_occupancy
  Sm  Sm0  1  0.32507431  0.82507431  0.50000000  1
  Sm  Sm1  1  0.67492569  0.17492569  0.50000000  1
  Sm  Sm2  1  0.82507431  0.67492569  0.50000000  1
  Sm  Sm3  1  0.17492569  0.32507431  0.50000000  1
  Pd  Pd4  1  0.12365036  0.62365036  0.00000000  1
  Pd  Pd5  1  0.37634964  0.12365036  0.00000000  1
  Pd  Pd6  1  0.87634964  0.37634964  -0.00000000  1
  Pd  Pd7  1  0.62365036  0.87634964  -0.00000000  1
  Pb  Pb8  1  0.00000000  -0.00000000  0.00000000  1
  Pb  Pb9  1  0.50000000  0.50000000  0.00000000  1
