# generated using pymatgen
data_La3U2O10
_symmetry_space_group_name_H-M   'P 1'
_cell_length_a   6.65474270
_cell_length_b   6.65474270
_cell_length_c   8.56838419
_cell_angle_alpha   52.01780244
_cell_angle_beta   52.01780244
_cell_angle_gamma   49.15231216
_symmetry_Int_Tables_number   1
_chemical_formula_structural   La3U2O10
_chemical_formula_sum   'La3 U2 O10'
_cell_volume   211.33004028
_cell_formula_units_Z   1
loop_
 _symmetry_equiv_pos_site_id
 _symmetry_equiv_pos_as_xyz
  1  'x, y, z'
loop_
 _atom_site_type_symbol
 _atom_site_label
 _atom_site_symmetry_multiplicity
 _atom_site_fract_x
 _atom_site_fract_y
 _atom_site_fract_z
 _atom_site_occupancy
  La  La0  1  0.39994332  0.39994332  0.90238393  1
  La  La1  1  0.00000000  0.00000000  0.50000000  1
  La  La2  1  0.60005668  0.60005668  0.09761607  1
  U  U3  1  0.19103285  0.19103285  0.70951515  1
  U  U4  1  0.80896715  0.80896715  0.29048485  1
  O  O5  1  0.22213635  0.77786365  0.00000000  1
  O  O6  1  0.86550697  0.35197114  0.61161459  1
  O  O7  1  0.77786365  0.22213635  0.00000000  1
  O  O8  1  0.47561887  0.94414570  0.21527856  1
  O  O9  1  0.05585430  0.52438113  0.78472144  1
  O  O10  1  0.35197114  0.86550697  0.61161459  1
  O  O11  1  0.64802886  0.13449303  0.38838541  1
  O  O12  1  0.94414570  0.47561887  0.21527856  1
  O  O13  1  0.52438113  0.05585430  0.78472144  1
  O  O14  1  0.13449303  0.64802886  0.38838541  1
