# generated using pymatgen
data_CeCoGeH
_symmetry_space_group_name_H-M   'P 1'
_cell_length_a   4.07408703
_cell_length_b   4.07408703
_cell_length_c   7.21731922
_cell_angle_alpha   90.00000000
_cell_angle_beta   90.00000000
_cell_angle_gamma   90.00000000
_symmetry_Int_Tables_number   1
_chemical_formula_structural   CeCoGeH
_chemical_formula_sum   'Ce2 Co2 Ge2 H2'
_cell_volume   119.79440054
_cell_formula_units_Z   2
loop_
 _symmetry_equiv_pos_site_id
 _symmetry_equiv_pos_as_xyz
  1  'x, y, z'
loop_
 _atom_site_type_symbol
 _atom_site_label
 _atom_site_symmetry_multiplicity
 _atom_site_fract_x
 _atom_site_fract_y
 _atom_site_fract_z
 _atom_site_occupancy
  Ce  Ce0  1  0.50000000  -0.00000000  0.32244495  1
  Ce  Ce1  1  -0.00000000  0.50000000  0.67755505  1
  Co  Co2  1  0.50000000  0.50000000  0.00000000  1
  Co  Co3  1  0.00000000  -0.00000000  -0.00000000  1
  Ge  Ge4  1  0.50000000  -0.00000000  0.83558678  1
  Ge  Ge5  1  0.00000000  0.50000000  0.16441322  1
  H  H6  1  -0.00000000  -0.00000000  0.50000000  1
  H  H7  1  0.50000000  0.50000000  0.50000000  1
