# generated using pymatgen
data_MnHO2
_symmetry_space_group_name_H-M   'P 1'
_cell_length_a   4.44047909
_cell_length_b   5.23709769
_cell_length_c   2.89297254
_cell_angle_alpha   90.00000000
_cell_angle_beta   90.00000000
_cell_angle_gamma   89.98566567
_symmetry_Int_Tables_number   1
_chemical_formula_structural   MnHO2
_chemical_formula_sum   'Mn2 H2 O4'
_cell_volume   67.27671887
_cell_formula_units_Z   2
loop_
 _symmetry_equiv_pos_site_id
 _symmetry_equiv_pos_as_xyz
  1  'x, y, z'
loop_
 _atom_site_type_symbol
 _atom_site_label
 _atom_site_symmetry_multiplicity
 _atom_site_fract_x
 _atom_site_fract_y
 _atom_site_fract_z
 _atom_site_occupancy
  Mn  Mn0  1  0.47748592  0.51205833  0.50000000  1
  Mn  Mn1  1  0.02255965  0.01210634  0.00000000  1
  H  H2  1  0.56087390  0.02800940  0.50000000  1
  H  H3  1  0.93914935  0.52794812  0.00000000  1
  O  O4  1  0.75376194  0.13412394  0.50000000  1
  O  O5  1  0.25762562  0.87963403  0.50000000  1
  O  O6  1  0.24228969  0.37966913  0.00000000  1
  O  O7  1  0.74625292  0.63420871  0.00000000  1
