# generated using pymatgen
data_Ce4GeS3
_symmetry_space_group_name_H-M   'P 1'
_cell_length_a   7.23762757
_cell_length_b   7.23762757
_cell_length_c   7.23762757
_cell_angle_alpha   131.84319321
_cell_angle_beta   131.84338276
_cell_angle_gamma   70.47664936
_symmetry_Int_Tables_number   1
_chemical_formula_structural   Ce4GeS3
_chemical_formula_sum   'Ce4 Ge1 S3'
_cell_volume   206.17327078
_cell_formula_units_Z   1
loop_
 _symmetry_equiv_pos_site_id
 _symmetry_equiv_pos_as_xyz
  1  'x, y, z'
loop_
 _atom_site_type_symbol
 _atom_site_label
 _atom_site_symmetry_multiplicity
 _atom_site_fract_x
 _atom_site_fract_y
 _atom_site_fract_z
 _atom_site_occupancy
  Ce  Ce0  1  0.00000000  0.50000000  0.50000000  1
  Ce  Ce1  1  0.50000000  0.00000000  0.50000000  1
  Ce  Ce2  1  0.25109772  0.25109772  -0.00000000  1
  Ce  Ce3  1  0.74890328  0.74890328  0.00000000  1
  Ge  Ge4  1  0.99999900  0.99999900  0.00000000  1
  S  S5  1  0.49999800  0.49999800  0.00000000  1
  S  S6  1  0.74998585  0.24998585  0.50000000  1
  S  S7  1  0.25001515  0.75001515  0.50000000  1
