# generated using pymatgen
data_V2CuO6
_symmetry_space_group_name_H-M   'P 1'
_cell_length_a   3.54595787
_cell_length_b   4.97674656
_cell_length_c   6.46871623
_cell_angle_alpha   107.90946706
_cell_angle_beta   93.06584421
_cell_angle_gamma   112.94858871
_symmetry_Int_Tables_number   1
_chemical_formula_structural   V2CuO6
_chemical_formula_sum   'V2 Cu1 O6'
_cell_volume   98.04917894
_cell_formula_units_Z   1
loop_
 _symmetry_equiv_pos_site_id
 _symmetry_equiv_pos_as_xyz
  1  'x, y, z'
loop_
 _atom_site_type_symbol
 _atom_site_label
 _atom_site_symmetry_multiplicity
 _atom_site_fract_x
 _atom_site_fract_y
 _atom_site_fract_z
 _atom_site_occupancy
  V  V0  1  0.20539916  0.38146204  0.65317034  1
  V  V1  1  0.79062014  0.61862886  0.34685410  1
  Cu  Cu2  1  0.99795944  0.99947767  0.99981122  1
  O  O3  1  0.03104174  0.05509287  0.72168396  1
  O  O4  1  0.96512954  0.94494524  0.27825291  1
  O  O5  1  0.40497917  0.68846868  0.89060182  1
  O  O6  1  0.59076827  0.31168868  0.10948850  1
  O  O7  1  0.29865560  0.61307989  0.43126718  1
  O  O8  1  0.69745095  0.38715807  0.56886997  1
