# generated using pymatgen
data_RbBe2F5
_symmetry_space_group_name_H-M   'P 1'
_cell_length_a   4.60237981
_cell_length_b   4.62512571
_cell_length_c   6.12781033
_cell_angle_alpha   91.77500167
_cell_angle_beta   91.23393186
_cell_angle_gamma   119.24676784
_symmetry_Int_Tables_number   1
_chemical_formula_structural   RbBe2F5
_chemical_formula_sum   'Rb1 Be2 F5'
_cell_volume   113.65690549
_cell_formula_units_Z   1
loop_
 _symmetry_equiv_pos_site_id
 _symmetry_equiv_pos_as_xyz
  1  'x, y, z'
loop_
 _atom_site_type_symbol
 _atom_site_label
 _atom_site_symmetry_multiplicity
 _atom_site_fract_x
 _atom_site_fract_y
 _atom_site_fract_z
 _atom_site_occupancy
  Rb  Rb0  1  0.99182280  0.99953407  0.99021515  1
  Be  Be1  1  0.29740633  0.69025488  0.39706359  1
  Be  Be2  1  0.62442572  0.35207706  0.58141848  1
  F  F3  1  0.34596698  0.66830022  0.15735176  1
  F  F4  1  0.94161701  0.41431977  0.45672911  1
  F  F5  1  0.32439656  0.03420656  0.46608136  1
  F  F6  1  0.56016374  0.65208703  0.54273643  1
  F  F7  1  0.65620186  0.31621841  0.82140412  1
