# generated using pymatgen
data_MnHO2
_symmetry_space_group_name_H-M   'P 1'
_cell_length_a   2.89514027
_cell_length_b   4.55706889
_cell_length_c   10.62338690
_cell_angle_alpha   89.99794594
_cell_angle_beta   89.99999881
_cell_angle_gamma   89.99997642
_symmetry_Int_Tables_number   1
_chemical_formula_structural   MnHO2
_chemical_formula_sum   'Mn4 H4 O8'
_cell_volume   140.15810036
_cell_formula_units_Z   4
loop_
 _symmetry_equiv_pos_site_id
 _symmetry_equiv_pos_as_xyz
  1  'x, y, z'
loop_
 _atom_site_type_symbol
 _atom_site_label
 _atom_site_symmetry_multiplicity
 _atom_site_fract_x
 _atom_site_fract_y
 _atom_site_fract_z
 _atom_site_occupancy
  Mn  Mn0  1  0.24999966  0.94394667  0.13962378  1
  Mn  Mn1  1  0.74999993  0.05605304  0.86037653  1
  Mn  Mn2  1  0.25000062  0.55606115  0.63963618  1
  Mn  Mn3  1  0.75000033  0.44393815  0.36036401  1
  H  H4  1  0.25000043  0.89790085  0.39363051  1
  H  H5  1  0.24999949  0.60207170  0.89365807  1
  H  H6  1  0.75000154  0.10210008  0.60637065  1
  H  H7  1  0.74999738  0.39792848  0.10634166  1
  O  O8  1  0.25000033  0.19571261  0.31207505  1
  O  O9  1  0.24999991  0.30428536  0.81209079  1
  O  O10  1  0.75000057  0.80428668  0.68792628  1
  O  O11  1  0.74999976  0.69571386  0.18790860  1
  O  O12  1  0.25000035  0.69312074  0.42974241  1
  O  O13  1  0.24999977  0.80687350  0.92975756  1
  O  O14  1  0.75000082  0.30687887  0.57025785  1
  O  O15  1  0.74999910  0.19312825  0.07024308  1
