# generated using pymatgen
data_Sr5U5O18
_symmetry_space_group_name_H-M   'P 1'
_cell_length_a   6.95007331
_cell_length_b   7.73933935
_cell_length_c   8.72436068
_cell_angle_alpha   100.61106374
_cell_angle_beta   97.99601684
_cell_angle_gamma   107.38962741
_symmetry_Int_Tables_number   1
_chemical_formula_structural   Sr5U5O18
_chemical_formula_sum   'Sr5 U5 O18'
_cell_volume   430.63671235
_cell_formula_units_Z   1
loop_
 _symmetry_equiv_pos_site_id
 _symmetry_equiv_pos_as_xyz
  1  'x, y, z'
loop_
 _atom_site_type_symbol
 _atom_site_label
 _atom_site_symmetry_multiplicity
 _atom_site_fract_x
 _atom_site_fract_y
 _atom_site_fract_z
 _atom_site_occupancy
  Sr  Sr0  1  0.79996029  0.10276757  0.58138161  1
  Sr  Sr1  1  0.59329875  0.69454571  0.19543337  1
  Sr  Sr2  1  0.40670125  0.30545429  0.80456663  1
  Sr  Sr3  1  0.20003971  0.89723243  0.41861839  1
  Sr  Sr4  1  0.00000000  0.50000000  0.00000000  1
  U  U5  1  0.00000000  0.00000000  0.00000000  1
  U  U6  1  0.79120513  0.57982277  0.58654869  1
  U  U7  1  0.62112107  0.19998573  0.19587135  1
  U  U8  1  0.37887893  0.80001427  0.80412865  1
  U  U9  1  0.20879487  0.42017723  0.41345131  1
  O  O10  1  0.82701836  0.78407126  0.46821202  1
  O  O11  1  0.01330574  0.22777934  0.17567778  1
  O  O12  1  0.66560965  0.39891285  0.07135063  1
  O  O13  1  0.45558985  0.99774623  0.68352091  1
  O  O14  1  0.86101231  0.35069522  0.41221020  1
  O  O15  1  0.49616430  0.38990301  0.34872430  1
  O  O16  1  0.24391855  0.60701844  0.28005948  1
  O  O17  1  0.97968588  0.83007360  0.14620505  1
  O  O18  1  0.66805718  0.94379273  0.99196835  1
  O  O19  1  0.33194282  0.05620727  0.00803165  1
  O  O20  1  0.02031412  0.16992640  0.85379495  1
  O  O21  1  0.75608145  0.39298156  0.71994052  1
  O  O22  1  0.50383570  0.61009699  0.65127570  1
  O  O23  1  0.13898769  0.64930478  0.58778980  1
  O  O24  1  0.54441015  0.00225377  0.31647909  1
  O  O25  1  0.33439035  0.60108715  0.92864937  1
  O  O26  1  0.98669426  0.77222066  0.82432222  1
  O  O27  1  0.17298164  0.21592874  0.53178798  1
