# generated using pymatgen
data_K3Cu2P4HO14
_symmetry_space_group_name_H-M   'P 1'
_cell_length_a   5.26174534
_cell_length_b   5.52086112
_cell_length_c   12.69132558
_cell_angle_alpha   90.60332849
_cell_angle_beta   100.43952077
_cell_angle_gamma   117.17330494
_symmetry_Int_Tables_number   1
_chemical_formula_structural   K3Cu2P4HO14
_chemical_formula_sum   'K3 Cu2 P4 H1 O14'
_cell_volume   320.71628842
_cell_formula_units_Z   1
loop_
 _symmetry_equiv_pos_site_id
 _symmetry_equiv_pos_as_xyz
  1  'x, y, z'
loop_
 _atom_site_type_symbol
 _atom_site_label
 _atom_site_symmetry_multiplicity
 _atom_site_fract_x
 _atom_site_fract_y
 _atom_site_fract_z
 _atom_site_occupancy
  K  K0  1  0.00000000  0.00000000  0.50000000  1
  K  K1  1  0.79731839  0.15020784  0.93657988  1
  K  K2  1  0.20268161  0.84979216  0.06342012  1
  Cu  Cu3  1  0.02782772  0.77350505  0.77991242  1
  Cu  Cu4  1  0.97217228  0.22649495  0.22008758  1
  P  P5  1  0.41371867  0.46904114  0.84100593  1
  P  P6  1  0.58628133  0.53095886  0.15899407  1
  P  P7  1  0.44066977  0.70974734  0.64811729  1
  P  P8  1  0.55933023  0.29025266  0.35188271  1
  H  H9  1  0.50000000  0.50000000  0.50000000  1
  O  O10  1  0.34653403  0.43818261  0.71063031  1
  O  O11  1  0.65346597  0.56181739  0.28936969  1
  O  O12  1  0.74749767  0.62512155  0.87675294  1
  O  O13  1  0.25250233  0.37487845  0.12324706  1
  O  O14  1  0.27097935  0.63804210  0.87321484  1
  O  O15  1  0.72902065  0.36195790  0.12678516  1
  O  O16  1  0.28758716  0.18666961  0.87625868  1
  O  O17  1  0.71241284  0.81333039  0.12374132  1
  O  O18  1  0.76617687  0.88798827  0.69030574  1
  O  O19  1  0.23382313  0.11201173  0.30969426  1
  O  O20  1  0.25736354  0.84295699  0.66928271  1
  O  O21  1  0.74263646  0.15704301  0.33071729  1
  O  O22  1  0.36688992  0.60573539  0.52916980  1
  O  O23  1  0.63311008  0.39426461  0.47083020  1
