# generated using pymatgen
data_Mn(InTe2)2
_symmetry_space_group_name_H-M   'P 1'
_cell_length_a   7.71017864
_cell_length_b   7.71017864
_cell_length_c   7.71022766
_cell_angle_alpha   132.03949302
_cell_angle_beta   132.03948448
_cell_angle_gamma   70.16692129
_symmetry_Int_Tables_number   1
_chemical_formula_structural   Mn(InTe2)2
_chemical_formula_sum   'Mn1 In2 Te4'
_cell_volume   247.81691448
_cell_formula_units_Z   1
loop_
 _symmetry_equiv_pos_site_id
 _symmetry_equiv_pos_as_xyz
  1  'x, y, z'
loop_
 _atom_site_type_symbol
 _atom_site_label
 _atom_site_symmetry_multiplicity
 _atom_site_fract_x
 _atom_site_fract_y
 _atom_site_fract_z
 _atom_site_occupancy
  Mn  Mn0  1  0.50000887  0.50000887  0.00001140  1
  In  In1  1  0.75002810  0.24998513  0.50001805  1
  In  In2  1  0.24998513  0.75002810  0.50001805  1
  Te  Te3  1  0.65352889  0.65352889  0.53138629  1
  Te  Te4  1  0.87783557  0.34647282  0.00000080  1
  Te  Te5  1  0.12213963  0.12213963  0.46856562  1
  Te  Te6  1  0.34647282  0.87783557  0.00000080  1
