# generated using pymatgen
data_CaH4(ClO)2
_symmetry_space_group_name_H-M   'P 1'
_cell_length_a   5.88567041
_cell_length_b   7.45072282
_cell_length_c   11.97597975
_cell_angle_alpha   90.00000000
_cell_angle_beta   90.00000000
_cell_angle_gamma   90.00000000
_symmetry_Int_Tables_number   1
_chemical_formula_structural   CaH4(ClO)2
_chemical_formula_sum   'Ca4 H16 Cl8 O8'
_cell_volume   525.17663785
_cell_formula_units_Z   4
loop_
 _symmetry_equiv_pos_site_id
 _symmetry_equiv_pos_as_xyz
  1  'x, y, z'
loop_
 _atom_site_type_symbol
 _atom_site_label
 _atom_site_symmetry_multiplicity
 _atom_site_fract_x
 _atom_site_fract_y
 _atom_site_fract_z
 _atom_site_occupancy
  Ca  Ca0  1  0.00000000  0.78022427  0.75000000  1
  Ca  Ca1  1  0.50000000  0.71977573  0.25000000  1
  Ca  Ca2  1  0.00000000  0.21977573  0.25000000  1
  Ca  Ca3  1  0.50000000  0.28022427  0.75000000  1
  H  H4  1  0.41715989  0.72439757  0.61345233  1
  H  H5  1  0.08284011  0.77560243  0.11345233  1
  H  H6  1  0.91715989  0.77560243  0.38654767  1
  H  H7  1  0.58284011  0.72439757  0.88654767  1
  H  H8  1  0.58284011  0.27560243  0.38654767  1
  H  H9  1  0.91715989  0.22439757  0.88654767  1
  H  H10  1  0.08284011  0.22439757  0.61345233  1
  H  H11  1  0.41715989  0.27560243  0.11345233  1
  H  H12  1  0.26543593  0.84870266  0.53835698  1
  H  H13  1  0.23456407  0.65129734  0.03835698  1
  H  H14  1  0.76543593  0.65129734  0.46164302  1
  H  H15  1  0.73456407  0.84870266  0.96164302  1
  H  H16  1  0.73456407  0.15129734  0.46164302  1
  H  H17  1  0.76543593  0.34870266  0.96164302  1
  H  H18  1  0.23456407  0.34870266  0.53835698  1
  H  H19  1  0.26543593  0.15129734  0.03835698  1
  Cl  Cl20  1  0.71812595  0.55096110  0.63378202  1
  Cl  Cl21  1  0.78187405  0.94903890  0.13378202  1
  Cl  Cl22  1  0.21812595  0.94903890  0.36621798  1
  Cl  Cl23  1  0.28187405  0.55096110  0.86621798  1
  Cl  Cl24  1  0.28187405  0.44903890  0.36621798  1
  Cl  Cl25  1  0.21812595  0.05096110  0.86621798  1
  Cl  Cl26  1  0.78187405  0.05096110  0.63378202  1
  Cl  Cl27  1  0.71812595  0.44903890  0.13378202  1
  O  O28  1  0.27089821  0.78606296  0.60982701  1
  O  O29  1  0.22910179  0.71393704  0.10982701  1
  O  O30  1  0.77089821  0.71393704  0.39017299  1
  O  O31  1  0.72910179  0.78606296  0.89017299  1
  O  O32  1  0.72910179  0.21393704  0.39017299  1
  O  O33  1  0.77089821  0.28606296  0.89017299  1
  O  O34  1  0.22910179  0.28606296  0.60982701  1
  O  O35  1  0.27089821  0.21393704  0.10982701  1
