# generated using pymatgen
data_EuMgH4
_symmetry_space_group_name_H-M   'P 1'
_cell_length_a   6.84507859
_cell_length_b   6.84507859
_cell_length_c   5.56587542
_cell_angle_alpha   90.00139990
_cell_angle_beta   90.00139990
_cell_angle_gamma   32.75077896
_symmetry_Int_Tables_number   1
_chemical_formula_structural   EuMgH4
_chemical_formula_sum   'Eu2 Mg2 H8'
_cell_volume   141.08352731
_cell_formula_units_Z   2
loop_
 _symmetry_equiv_pos_site_id
 _symmetry_equiv_pos_as_xyz
  1  'x, y, z'
loop_
 _atom_site_type_symbol
 _atom_site_label
 _atom_site_symmetry_multiplicity
 _atom_site_fract_x
 _atom_site_fract_y
 _atom_site_fract_z
 _atom_site_occupancy
  Eu  Eu0  1  0.84841867  0.84841867  0.74662553  1
  Eu  Eu1  1  0.15157545  0.15157545  0.24662569  1
  Mg  Mg2  1  0.58298799  0.58298799  0.69518963  1
  Mg  Mg3  1  0.41701799  0.41701799  0.19518645  1
  H  H4  1  0.66635209  0.66635209  0.97344442  1
  H  H5  1  0.33365117  0.33365117  0.47342515  1
  H  H6  1  0.70257162  0.70257162  0.49555591  1
  H  H7  1  0.29742495  0.29742495  0.99554520  1
  H  H8  1  0.93313405  0.93313405  0.14745754  1
  H  H9  1  0.06685688  0.06685688  0.64747841  1
  H  H10  1  0.45514703  0.45514703  0.84272666  1
  H  H11  1  0.54486210  0.54486210  0.34273841  1
