# generated using pymatgen
data_V3H5O8
_symmetry_space_group_name_H-M   'P 1'
_cell_length_a   9.70260387
_cell_length_b   9.70260387
_cell_length_c   4.71699003
_cell_angle_alpha   75.05233984
_cell_angle_beta   75.05233984
_cell_angle_gamma   17.99447266
_symmetry_Int_Tables_number   1
_chemical_formula_structural   V3H5O8
_chemical_formula_sum   'V3 H5 O8'
_cell_volume   132.42088811
_cell_formula_units_Z   1
loop_
 _symmetry_equiv_pos_site_id
 _symmetry_equiv_pos_as_xyz
  1  'x, y, z'
loop_
 _atom_site_type_symbol
 _atom_site_label
 _atom_site_symmetry_multiplicity
 _atom_site_fract_x
 _atom_site_fract_y
 _atom_site_fract_z
 _atom_site_occupancy
  V  V0  1  0.00075954  0.00075954  0.48355288  1
  V  V1  1  0.82003828  0.82003828  0.38390263  1
  V  V2  1  0.17865294  0.17865294  0.61430064  1
  H  H3  1  0.58451840  0.58451840  0.09218815  1
  H  H4  1  0.49537078  0.49537078  0.95721702  1
  H  H5  1  0.41108128  0.41108128  0.91377869  1
  H  H6  1  0.31228516  0.31228516  0.92584748  1
  H  H7  1  0.68873843  0.68873843  0.06547410  1
  O  O8  1  0.53072750  0.53072750  0.20332003  1
  O  O9  1  0.46786745  0.46786745  0.79613400  1
  O  O10  1  0.90715180  0.90715180  0.42732817  1
  O  O11  1  0.09140814  0.09140814  0.57539809  1
  O  O12  1  0.34059836  0.34059836  0.07875481  1
  O  O13  1  0.66137997  0.66137997  0.91024358  1
  O  O14  1  0.71795871  0.71795871  0.35081958  1
  O  O15  1  0.28206028  0.28206028  0.64400817  1
