# generated using pymatgen
data_Sc(HO)3
_symmetry_space_group_name_H-M   'P 1'
_cell_length_a   6.80562076
_cell_length_b   6.80562076
_cell_length_c   6.80562087
_cell_angle_alpha   109.68940201
_cell_angle_beta   109.68940199
_cell_angle_gamma   109.68940475
_symmetry_Int_Tables_number   1
_chemical_formula_structural   Sc(HO)3
_chemical_formula_sum   'Sc4 H12 O12'
_cell_volume   240.67051034
_cell_formula_units_Z   4
loop_
 _symmetry_equiv_pos_site_id
 _symmetry_equiv_pos_as_xyz
  1  'x, y, z'
loop_
 _atom_site_type_symbol
 _atom_site_label
 _atom_site_symmetry_multiplicity
 _atom_site_fract_x
 _atom_site_fract_y
 _atom_site_fract_z
 _atom_site_occupancy
  Sc  Sc0  1  0.50000000  0.50000000  0.50000000  1
  Sc  Sc1  1  -0.00000000  -0.00000000  0.50000000  1
  Sc  Sc2  1  0.50000000  -0.00000000  -0.00000000  1
  Sc  Sc3  1  -0.00000000  0.50000000  -0.00000000  1
  H  H4  1  0.04202189  0.30989594  0.35166201  1
  H  H5  1  0.95797811  0.69010406  0.64833799  1
  H  H6  1  0.82505779  0.45305521  0.27663450  1
  H  H7  1  0.17494221  0.54694479  0.72336550  1
  H  H8  1  0.64833799  0.95797811  0.69010406  1
  H  H9  1  0.35166201  0.04202189  0.30989594  1
  H  H10  1  0.72336550  0.17494221  0.54694479  1
  H  H11  1  0.27663450  0.82505779  0.45305521  1
  H  H12  1  0.45305521  0.27663450  0.82505779  1
  H  H13  1  0.54694479  0.72336550  0.17494221  1
  H  H14  1  0.30989594  0.35166201  0.04202189  1
  H  H15  1  0.69010406  0.64833799  0.95797811  1
  O  O16  1  0.16781291  0.31145967  0.48107774  1
  O  O17  1  0.83218709  0.68854033  0.51892226  1
  O  O18  1  0.82568327  0.32454760  0.15348121  1
  O  O19  1  0.17431673  0.67545240  0.84651879  1
  O  O20  1  0.51892226  0.83218709  0.68854033  1
  O  O21  1  0.48107774  0.16781291  0.31145967  1
  O  O22  1  0.84651879  0.17431673  0.67545240  1
  O  O23  1  0.15348121  0.82568327  0.32454760  1
  O  O24  1  0.32454760  0.15348121  0.82568327  1
  O  O25  1  0.67545240  0.84651879  0.17431673  1
  O  O26  1  0.31145967  0.48107774  0.16781291  1
  O  O27  1  0.68854033  0.51892226  0.83218709  1
