# generated using pymatgen
data_FeSeBr7
_symmetry_space_group_name_H-M   'P 1'
_cell_length_a   6.59817447
_cell_length_b   6.73299281
_cell_length_c   14.70520579
_cell_angle_alpha   77.99323095
_cell_angle_beta   90.00000000
_cell_angle_gamma   90.00000000
_symmetry_Int_Tables_number   1
_chemical_formula_structural   FeSeBr7
_chemical_formula_sum   'Fe2 Se2 Br14'
_cell_volume   638.99364170
_cell_formula_units_Z   2
loop_
 _symmetry_equiv_pos_site_id
 _symmetry_equiv_pos_as_xyz
  1  'x, y, z'
loop_
 _atom_site_type_symbol
 _atom_site_label
 _atom_site_symmetry_multiplicity
 _atom_site_fract_x
 _atom_site_fract_y
 _atom_site_fract_z
 _atom_site_occupancy
  Fe  Fe0  1  0.50270565  0.44618846  0.14083048  1
  Fe  Fe1  1  0.49729435  0.44618846  0.64083048  1
  Se  Se2  1  0.91456013  0.15453870  0.30190899  1
  Se  Se3  1  0.08543987  0.15453870  0.80190899  1
  Br  Br4  1  0.14938059  0.46950707  0.13601558  1
  Br  Br5  1  0.87898404  0.27631515  0.90730937  1
  Br  Br6  1  0.31359728  0.95739889  0.90669288  1
  Br  Br7  1  0.68640272  0.95739889  0.40669288  1
  Br  Br8  1  0.38233093  0.11587756  0.64050993  1
  Br  Br9  1  0.37451391  0.52359874  0.78001959  1
  Br  Br10  1  0.61766907  0.11587756  0.14050993  1
  Br  Br11  1  0.88516824  0.89295844  0.76738303  1
  Br  Br12  1  0.64326445  0.66691800  0.01213115  1
  Br  Br13  1  0.62548609  0.52359874  0.28001959  1
  Br  Br14  1  0.35673555  0.66691800  0.51213115  1
  Br  Br15  1  0.11483176  0.89295844  0.26738303  1
  Br  Br16  1  0.12101596  0.27631515  0.40730937  1
  Br  Br17  1  0.85061941  0.46950707  0.63601558  1
