# generated using pymatgen
data_K7Th6F31
_symmetry_space_group_name_H-M   'P 1'
_cell_length_a   9.49065970
_cell_length_b   9.49104702
_cell_length_c   9.49093640
_cell_angle_alpha   107.22449202
_cell_angle_beta   107.22300314
_cell_angle_gamma   107.22677200
_symmetry_Int_Tables_number   1
_chemical_formula_structural   K7Th6F31
_chemical_formula_sum   'K7 Th6 F31'
_cell_volume   707.56533932
_cell_formula_units_Z   1
loop_
 _symmetry_equiv_pos_site_id
 _symmetry_equiv_pos_as_xyz
  1  'x, y, z'
loop_
 _atom_site_type_symbol
 _atom_site_label
 _atom_site_symmetry_multiplicity
 _atom_site_fract_x
 _atom_site_fract_y
 _atom_site_fract_z
 _atom_site_occupancy
  K  K0  1  0.81234348  0.41355454  0.27488801  1
  K  K1  1  0.71685060  0.17824740  0.57066796  1
  K  K2  1  0.57072290  0.71688236  0.17820270  1
  K  K3  1  0.50116560  0.50122142  0.50120479  1
  K  K4  1  0.41352973  0.27484358  0.81235929  1
  K  K5  1  0.27487186  0.81237033  0.41354066  1
  K  K6  1  0.17820328  0.57065874  0.71682175  1
  Th  Th7  1  0.95738677  0.87027570  0.62035238  1
  Th  Th8  1  0.87024688  0.62032361  0.95738215  1
  Th  Th9  1  0.35739071  0.04566865  0.12841145  1
  Th  Th10  1  0.62033196  0.95737764  0.87027695  1
  Th  Th11  1  0.12844431  0.35744220  0.04566701  1
  Th  Th12  1  0.04566549  0.12839998  0.35740673  1
  F  F13  1  0.78826877  0.04658078  0.15026105  1
  F  F14  1  0.94269615  0.28994031  0.47552389  1
  F  F15  1  0.95529979  0.84137054  0.20616785  1
  F  F16  1  0.97450576  0.43709457  0.84937282  1
  F  F17  1  0.69451360  0.51645765  0.05216908  1
  F  F18  1  0.54670290  0.14853095  0.01905822  1
  F  F19  1  0.84143084  0.20614462  0.95536548  1
  F  F20  1  0.90519591  0.69705711  0.75023487  1
  F  F21  1  0.84938392  0.97456377  0.43715737  1
  F  F22  1  0.73178820  0.65759023  0.42105601  1
  F  F23  1  0.57308923  0.26266078  0.33851973  1
  F  F24  1  0.65755041  0.42105548  0.73177948  1
  F  F25  1  0.51651550  0.05219188  0.69455937  1
  F  F26  1  0.75023147  0.90521406  0.69707153  1
  F  F27  1  0.34659759  0.28241410  0.09809266  1
  F  F28  1  0.69700741  0.75017522  0.90521243  1
  F  F29  1  0.28239731  0.09809797  0.34660594  1
  F  F30  1  0.47559181  0.94272068  0.28992254  1
  F  F31  1  0.33854783  0.57315856  0.26263187  1
  F  F32  1  0.08381030  0.08372716  0.08376887  1
  F  F33  1  0.42102631  0.73181101  0.65757036  1
  F  F34  1  0.26263710  0.33851569  0.57312371  1
  F  F35  1  0.14851473  0.01899350  0.54665408  1
  F  F36  1  0.09822472  0.34659515  0.28241869  1
  F  F37  1  0.15024953  0.78826774  0.04662093  1
  F  F38  1  0.43709283  0.84937253  0.97452415  1
  F  F39  1  0.28995796  0.47561685  0.94269167  1
  F  F40  1  0.01900637  0.54665476  0.14852039  1
  F  F41  1  0.04665227  0.15028927  0.78829079  1
  F  F42  1  0.05217596  0.69454530  0.51650350  1
  F  F43  1  0.20618995  0.95533263  0.84137284  1
