# generated using pymatgen
data_H3SNO3
_symmetry_space_group_name_H-M   'P 1'
_cell_length_a   8.47777744
_cell_length_b   8.02933555
_cell_length_c   8.94209060
_cell_angle_alpha   90.00000000
_cell_angle_beta   90.00000000
_cell_angle_gamma   90.00000000
_symmetry_Int_Tables_number   1
_chemical_formula_structural   H3SNO3
_chemical_formula_sum   'H24 S8 N8 O24'
_cell_volume   608.69633256
_cell_formula_units_Z   8
loop_
 _symmetry_equiv_pos_site_id
 _symmetry_equiv_pos_as_xyz
  1  'x, y, z'
loop_
 _atom_site_type_symbol
 _atom_site_label
 _atom_site_symmetry_multiplicity
 _atom_site_fract_x
 _atom_site_fract_y
 _atom_site_fract_z
 _atom_site_occupancy
  H  H0  1  0.20756265  0.09737653  0.39909275  1
  H  H1  1  0.70756265  0.40262347  0.39909275  1
  H  H2  1  0.84804369  0.02489333  0.16714290  1
  H  H3  1  0.22534552  0.93873838  0.00621474  1
  H  H4  1  0.77465448  0.06126162  0.99378526  1
  H  H5  1  0.15195631  0.47510667  0.66714290  1
  H  H6  1  0.29243735  0.59737653  0.60090725  1
  H  H7  1  0.34804369  0.47510667  0.16714290  1
  H  H8  1  0.79243735  0.40262347  0.89909275  1
  H  H9  1  0.27465448  0.93873838  0.50621474  1
  H  H10  1  0.79243735  0.90262347  0.60090725  1
  H  H11  1  0.70756265  0.90262347  0.10090725  1
  H  H12  1  0.29243735  0.09737653  0.89909275  1
  H  H13  1  0.72534552  0.06126162  0.49378526  1
  H  H14  1  0.34804369  0.97510667  0.33285710  1
  H  H15  1  0.15195631  0.97510667  0.83285710  1
  H  H16  1  0.72534552  0.56126162  0.00621474  1
  H  H17  1  0.65195631  0.52489333  0.83285710  1
  H  H18  1  0.65195631  0.02489333  0.66714290  1
  H  H19  1  0.22534552  0.43873838  0.49378526  1
  H  H20  1  0.20756265  0.59737653  0.10090725  1
  H  H21  1  0.27465448  0.43873838  0.99378526  1
  H  H22  1  0.77465448  0.56126162  0.50621474  1
  H  H23  1  0.84804369  0.52489333  0.33285710  1
  S  S24  1  0.10078081  0.34339134  0.18169765  1
  S  S25  1  0.89921919  0.65660866  0.81830235  1
  S  S26  1  0.39921919  0.84339134  0.81830235  1
  S  S27  1  0.60078081  0.15660866  0.18169765  1
  S  S28  1  0.39921919  0.34339134  0.68169765  1
  S  S29  1  0.89921919  0.15660866  0.68169765  1
  S  S30  1  0.10078081  0.84339134  0.31830235  1
  S  S31  1  0.60078081  0.65660866  0.31830235  1
  N  N32  1  0.74764960  0.52403865  0.39863619  1
  N  N33  1  0.25235040  0.97596135  0.89863619  1
  N  N34  1  0.24764960  0.97596135  0.39863619  1
  N  N35  1  0.25235040  0.47596135  0.60136381  1
  N  N36  1  0.74764960  0.02403865  0.10136381  1
  N  N37  1  0.75235040  0.52403865  0.89863619  1
  N  N38  1  0.75235040  0.02403865  0.60136381  1
  N  N39  1  0.24764960  0.47596135  0.10136381  1
  O  O40  1  0.96170501  0.44580308  0.17371021  1
  O  O41  1  0.83747652  0.68377116  0.66947983  1
  O  O42  1  0.03829499  0.55419692  0.82628979  1
  O  O43  1  0.10170492  0.70005778  0.41312136  1
  O  O44  1  0.60170492  0.29994222  0.08687864  1
  O  O45  1  0.10170492  0.20005778  0.08687864  1
  O  O46  1  0.83747652  0.18377116  0.83052017  1
  O  O47  1  0.33747652  0.81622884  0.66947983  1
  O  O48  1  0.66252348  0.18377116  0.33052017  1
  O  O49  1  0.53829499  0.94580308  0.82628979  1
  O  O50  1  0.39829508  0.70005778  0.91312136  1
  O  O51  1  0.33747652  0.31622884  0.83052017  1
  O  O52  1  0.46170501  0.55419692  0.32628979  1
  O  O53  1  0.89829508  0.29994222  0.58687864  1
  O  O54  1  0.66252348  0.68377116  0.16947983  1
  O  O55  1  0.60170492  0.79994222  0.41312136  1
  O  O56  1  0.39829508  0.20005778  0.58687864  1
  O  O57  1  0.16252348  0.31622884  0.33052017  1
  O  O58  1  0.96170501  0.94580308  0.32628979  1
  O  O59  1  0.53829499  0.44580308  0.67371021  1
  O  O60  1  0.46170501  0.05419692  0.17371021  1
  O  O61  1  0.03829499  0.05419692  0.67371021  1
  O  O62  1  0.89829508  0.79994222  0.91312136  1
  O  O63  1  0.16252348  0.81622884  0.16947983  1
