# generated using pymatgen
data_Eu2Ga3Ir
_symmetry_space_group_name_H-M   'P 1'
_cell_length_a   5.64128659
_cell_length_b   5.64060484
_cell_length_c   8.66027105
_cell_angle_alpha   89.99968524
_cell_angle_beta   90.00064148
_cell_angle_gamma   119.99927679
_symmetry_Int_Tables_number   1
_chemical_formula_structural   Eu2Ga3Ir
_chemical_formula_sum   'Eu4 Ga6 Ir2'
_cell_volume   238.65422154
_cell_formula_units_Z   2
loop_
 _symmetry_equiv_pos_site_id
 _symmetry_equiv_pos_as_xyz
  1  'x, y, z'
loop_
 _atom_site_type_symbol
 _atom_site_label
 _atom_site_symmetry_multiplicity
 _atom_site_fract_x
 _atom_site_fract_y
 _atom_site_fract_z
 _atom_site_occupancy
  Eu  Eu0  1  0.33341827  0.66675915  0.44688102  1
  Eu  Eu1  1  0.66657586  0.33323742  0.94711245  1
  Eu  Eu2  1  0.33341153  0.66680752  0.05302367  1
  Eu  Eu3  1  0.66658482  0.33319170  0.55297025  1
  Ga  Ga4  1  0.84064602  0.68120627  0.24987843  1
  Ga  Ga5  1  0.84079120  0.15969507  0.24987628  1
  Ga  Ga6  1  0.15920437  0.84032024  0.75011250  1
  Ga  Ga7  1  0.31891556  0.15961873  0.24988214  1
  Ga  Ga8  1  0.68111259  0.84039887  0.75011904  1
  Ga  Ga9  1  0.15933896  0.31876685  0.75014155  1
  Ir  Ir10  1  -0.00000087  0.00001436  0.00005220  1
  Ir  Ir11  1  0.00000269  0.99998283  0.49995047  1
