# generated using pymatgen
data_K2GdF5
_symmetry_space_group_name_H-M   'P 1'
_cell_length_a   6.57288130
_cell_length_b   7.36192987
_cell_length_c   10.71998805
_cell_angle_alpha   90.00000000
_cell_angle_beta   90.00000000
_cell_angle_gamma   90.00000000
_symmetry_Int_Tables_number   1
_chemical_formula_structural   K2GdF5
_chemical_formula_sum   'K8 Gd4 F20'
_cell_volume   518.73047914
_cell_formula_units_Z   4
loop_
 _symmetry_equiv_pos_site_id
 _symmetry_equiv_pos_as_xyz
  1  'x, y, z'
loop_
 _atom_site_type_symbol
 _atom_site_label
 _atom_site_symmetry_multiplicity
 _atom_site_fract_x
 _atom_site_fract_y
 _atom_site_fract_z
 _atom_site_occupancy
  K  K0  1  0.46510151  0.50350075  0.67108331  1
  K  K1  1  0.03489849  0.99649925  0.17108331  1
  K  K2  1  0.53489849  0.00350075  0.32891669  1
  K  K3  1  0.96510151  0.49649925  0.82891669  1
  K  K4  1  0.53489849  0.49649925  0.32891669  1
  K  K5  1  0.96510151  0.00350075  0.82891669  1
  K  K6  1  0.46510151  0.99649925  0.67108331  1
  K  K7  1  0.03489849  0.50350075  0.17108331  1
  Gd  Gd8  1  0.93326155  0.75000000  0.50378468  1
  Gd  Gd9  1  0.56673845  0.75000000  0.00378468  1
  Gd  Gd10  1  0.06673845  0.25000000  0.49621532  1
  Gd  Gd11  1  0.43326155  0.25000000  0.99621532  1
  F  F12  1  0.59475570  0.75000000  0.51097337  1
  F  F13  1  0.90524430  0.75000000  0.01097337  1
  F  F14  1  0.40524430  0.25000000  0.48902663  1
  F  F15  1  0.09475570  0.25000000  0.98902663  1
  F  F16  1  0.15030897  0.53482941  0.42154857  1
  F  F17  1  0.34969103  0.96517059  0.92154857  1
  F  F18  1  0.84969103  0.03482941  0.57845143  1
  F  F19  1  0.65030897  0.46517059  0.07845143  1
  F  F20  1  0.84969103  0.46517059  0.57845143  1
  F  F21  1  0.65030897  0.03482941  0.07845143  1
  F  F22  1  0.15030897  0.96517059  0.42154857  1
  F  F23  1  0.34969103  0.53482941  0.92154857  1
  F  F24  1  0.13416501  0.75000000  0.67144205  1
  F  F25  1  0.36583499  0.75000000  0.17144205  1
  F  F26  1  0.86583499  0.25000000  0.32855795  1
  F  F27  1  0.63416501  0.25000000  0.82855795  1
  F  F28  1  0.83401303  0.75000000  0.30261947  1
  F  F29  1  0.66598697  0.75000000  0.80261947  1
  F  F30  1  0.16598697  0.25000000  0.69738053  1
  F  F31  1  0.33401303  0.25000000  0.19738053  1
