# generated using pymatgen
data_Sr(GaTe2)2
_symmetry_space_group_name_H-M   'P 1'
_cell_length_a   6.79793975
_cell_length_b   6.79793907
_cell_length_c   11.85161566
_cell_angle_alpha   90.00000000
_cell_angle_beta   90.00000000
_cell_angle_gamma   120.25875230
_symmetry_Int_Tables_number   1
_chemical_formula_structural   Sr(GaTe2)2
_chemical_formula_sum   'Sr2 Ga4 Te8'
_cell_volume   473.06900271
_cell_formula_units_Z   2
loop_
 _symmetry_equiv_pos_site_id
 _symmetry_equiv_pos_as_xyz
  1  'x, y, z'
loop_
 _atom_site_type_symbol
 _atom_site_label
 _atom_site_symmetry_multiplicity
 _atom_site_fract_x
 _atom_site_fract_y
 _atom_site_fract_z
 _atom_site_occupancy
  Sr  Sr0  1  0.50000000  0.50000000  0.25000000  1
  Sr  Sr1  1  0.50000000  0.50000000  0.75000000  1
  Ga  Ga2  1  0.24252014  0.75986947  0.50000000  1
  Ga  Ga3  1  0.75747986  0.24013053  0.50000000  1
  Ga  Ga4  1  0.24013053  0.75747986  0.00000000  1
  Ga  Ga5  1  0.75986947  0.24252014  0.00000000  1
  Te  Te6  1  0.65712515  0.81433139  0.00000000  1
  Te  Te7  1  0.34287485  0.18566861  0.00000000  1
  Te  Te8  1  0.81433139  0.65712515  0.50000000  1
  Te  Te9  1  0.18566861  0.34287485  0.50000000  1
  Te  Te10  1  0.50000000  -0.00000000  0.67183092  1
  Te  Te11  1  -0.00000000  0.50000000  0.82816908  1
  Te  Te12  1  0.50000000  -0.00000000  0.32816908  1
  Te  Te13  1  -0.00000000  0.50000000  0.17183092  1
