# generated using pymatgen
data_NaZr2CuF11
_symmetry_space_group_name_H-M   'P 1'
_cell_length_a   5.61602300
_cell_length_b   5.85751702
_cell_length_c   7.78216881
_cell_angle_alpha   110.48957988
_cell_angle_beta   96.72258539
_cell_angle_gamma   106.29340614
_symmetry_Int_Tables_number   1
_chemical_formula_structural   NaZr2CuF11
_chemical_formula_sum   'Na1 Zr2 Cu1 F11'
_cell_volume   223.48044071
_cell_formula_units_Z   1
loop_
 _symmetry_equiv_pos_site_id
 _symmetry_equiv_pos_as_xyz
  1  'x, y, z'
loop_
 _atom_site_type_symbol
 _atom_site_label
 _atom_site_symmetry_multiplicity
 _atom_site_fract_x
 _atom_site_fract_y
 _atom_site_fract_z
 _atom_site_occupancy
  Na  Na0  1  0.00000000  0.00000000  0.00000000  1
  Zr  Zr1  1  0.48714600  0.50572100  0.76299900  1
  Zr  Zr2  1  0.51285400  0.49427900  0.23700100  1
  Cu  Cu3  1  0.00000000  0.00000000  0.50000000  1
  F  F4  1  0.25951100  0.72195600  0.11043900  1
  F  F5  1  0.18942000  0.23244200  0.70953600  1
  F  F6  1  0.77556900  0.81772200  0.66941600  1
  F  F7  1  0.74048900  0.27804400  0.88956100  1
  F  F8  1  0.33698200  0.32339600  0.01616500  1
  F  F9  1  0.81058000  0.76755800  0.29046400  1
  F  F10  1  0.76314100  0.23889700  0.35301800  1
  F  F11  1  0.23685900  0.76110300  0.64698200  1
  F  F12  1  0.22443100  0.18227800  0.33058400  1
  F  F13  1  0.50000000  0.50000000  0.50000000  1
  F  F14  1  0.66301800  0.67660400  0.98383500  1
