# generated using pymatgen
data_NdOsO4
_symmetry_space_group_name_H-M   'P 1'
_cell_length_a   5.48623237
_cell_length_b   7.56453278
_cell_length_c   14.99324223
_cell_angle_alpha   90.00000000
_cell_angle_beta   90.00000000
_cell_angle_gamma   90.00000000
_symmetry_Int_Tables_number   1
_chemical_formula_structural   NdOsO4
_chemical_formula_sum   'Nd8 Os8 O32'
_cell_volume   622.23131627
_cell_formula_units_Z   8
loop_
 _symmetry_equiv_pos_site_id
 _symmetry_equiv_pos_as_xyz
  1  'x, y, z'
loop_
 _atom_site_type_symbol
 _atom_site_label
 _atom_site_symmetry_multiplicity
 _atom_site_fract_x
 _atom_site_fract_y
 _atom_site_fract_z
 _atom_site_occupancy
  Nd  Nd0  1  0.74820226  0.12050721  0.90224740  1
  Nd  Nd1  1  0.81125265  0.87763646  0.43897547  1
  Nd  Nd2  1  0.74820226  0.37949279  0.40224740  1
  Nd  Nd3  1  0.31125265  0.37763646  0.06102453  1
  Nd  Nd4  1  0.31125265  0.12236354  0.56102453  1
  Nd  Nd5  1  0.81125265  0.62236354  0.93897547  1
  Nd  Nd6  1  0.24820226  0.87949279  0.09775260  1
  Nd  Nd7  1  0.24820226  0.62050721  0.59775260  1
  Os  Os8  1  0.23925634  0.12628124  0.33083438  1
  Os  Os9  1  0.74262116  0.12554291  0.16538514  1
  Os  Os10  1  0.24262116  0.62554291  0.33461486  1
  Os  Os11  1  0.23925634  0.37371876  0.83083438  1
  Os  Os12  1  0.24262116  0.87445709  0.83461486  1
  Os  Os13  1  0.73925634  0.62628124  0.16916562  1
  Os  Os14  1  0.73925634  0.87371876  0.66916562  1
  Os  Os15  1  0.74262116  0.37445709  0.66538514  1
  O  O16  1  0.54149475  0.66015857  0.39504684  1
  O  O17  1  0.04149475  0.33984143  0.60495316  1
  O  O18  1  0.51622474  0.10071860  0.41693258  1
  O  O19  1  0.04149475  0.16015857  0.10495316  1
  O  O20  1  0.54180807  0.84374476  0.55995570  1
  O  O21  1  0.55660682  0.10106522  0.05063031  1
  O  O22  1  0.33482208  0.12432210  0.83286762  1
  O  O23  1  0.43827424  0.08181025  0.22866861  1
  O  O24  1  0.01622474  0.89928140  0.58306742  1
  O  O25  1  0.65081446  0.37782541  0.16359097  1
  O  O26  1  0.41677742  0.68092962  0.22146776  1
  O  O27  1  0.83482208  0.62432210  0.66713238  1
  O  O28  1  0.54180807  0.65625524  0.05995570  1
  O  O29  1  0.83482208  0.87567790  0.16713238  1
  O  O30  1  0.05660682  0.60106522  0.44936969  1
  O  O31  1  0.15081446  0.87782541  0.33640903  1
  O  O32  1  0.04180807  0.34374476  0.94004430  1
  O  O33  1  0.65081446  0.12217459  0.66359097  1
  O  O34  1  0.54149475  0.83984143  0.89504684  1
  O  O35  1  0.41677742  0.81907038  0.72146776  1
  O  O36  1  0.91677742  0.18092962  0.27853224  1
  O  O37  1  0.93827424  0.58181025  0.27133139  1
  O  O38  1  0.51622474  0.39928140  0.91693258  1
  O  O39  1  0.15081446  0.62217459  0.83640903  1
  O  O40  1  0.91677742  0.31907038  0.77853224  1
  O  O41  1  0.55660682  0.39893478  0.55063031  1
  O  O42  1  0.33482208  0.37567790  0.33286762  1
  O  O43  1  0.05660682  0.89893478  0.94936969  1
  O  O44  1  0.93827424  0.91818975  0.77133139  1
  O  O45  1  0.04180807  0.15625524  0.44004430  1
  O  O46  1  0.01622474  0.60071860  0.08306742  1
  O  O47  1  0.43827424  0.41818975  0.72866861  1
