# generated using pymatgen
data_H2O
_symmetry_space_group_name_H-M   'P 1'
_cell_length_a   6.50141625
_cell_length_b   6.50141625
_cell_length_c   6.63603560
_cell_angle_alpha   90.00000000
_cell_angle_beta   90.00000000
_cell_angle_gamma   90.00000000
_symmetry_Int_Tables_number   1
_chemical_formula_structural   H2O
_chemical_formula_sum   'H24 O12'
_cell_volume   280.49469512
_cell_formula_units_Z   12
loop_
 _symmetry_equiv_pos_site_id
 _symmetry_equiv_pos_as_xyz
  1  'x, y, z'
loop_
 _atom_site_type_symbol
 _atom_site_label
 _atom_site_symmetry_multiplicity
 _atom_site_fract_x
 _atom_site_fract_y
 _atom_site_fract_z
 _atom_site_occupancy
  H  H0  1  0.48536677  0.16275407  0.54396835  1
  H  H1  1  0.51463223  0.83724593  0.04396835  1
  H  H2  1  0.66275407  0.01463323  0.29396835  1
  H  H3  1  0.33724593  0.98536777  0.79396835  1
  H  H4  1  0.83724593  0.51463223  0.95603165  1
  H  H5  1  0.16275407  0.48536677  0.45603165  1
  H  H6  1  0.01463323  0.66275407  0.70603165  1
  H  H7  1  0.98536777  0.33724593  0.20603165  1
  H  H8  1  0.61621352  0.34696280  0.45615861  1
  H  H9  1  0.38378648  0.65303720  0.95615861  1
  H  H10  1  0.84696280  0.88378648  0.20615861  1
  H  H11  1  0.15303720  0.11621352  0.70615861  1
  H  H12  1  0.65303720  0.38378648  0.04384139  1
  H  H13  1  0.34696280  0.61621352  0.54384139  1
  H  H14  1  0.88378648  0.84696280  0.79384139  1
  H  H15  1  0.11621352  0.15303720  0.29384139  1
  H  H16  1  0.79831898  0.13890621  0.63924273  1
  H  H17  1  0.20168102  0.86109379  0.13924273  1
  H  H18  1  0.63890621  0.70168102  0.38924273  1
  H  H19  1  0.36109379  0.29831898  0.88924273  1
  H  H20  1  0.86109379  0.20168102  0.86075727  1
  H  H21  1  0.13890621  0.79831898  0.36075727  1
  H  H22  1  0.70168102  0.63890621  0.61075727  1
  H  H23  1  0.29831898  0.36109379  0.11075727  1
  O  O24  1  0.89489552  0.10510448  0.75000000  1
  O  O25  1  0.10510448  0.89489552  0.25000000  1
  O  O26  1  0.60510448  0.60510448  0.50000000  1
  O  O27  1  0.39489552  0.39489552  -0.00000000  1
  O  O28  1  0.61176841  0.19522185  0.46674903  1
  O  O29  1  0.38823159  0.80477815  0.96674903  1
  O  O30  1  0.69522185  0.88823159  0.21674903  1
  O  O31  1  0.30477815  0.11176841  0.71674903  1
  O  O32  1  0.80477815  0.38823159  0.03325097  1
  O  O33  1  0.19522185  0.61176841  0.53325097  1
  O  O34  1  0.88823159  0.69522185  0.78325097  1
  O  O35  1  0.11176841  0.30477815  0.28325097  1
