# generated using pymatgen
data_Cs3Bi
_symmetry_space_group_name_H-M   'P 1'
_cell_length_a   6.64198696
_cell_length_b   6.64198693
_cell_length_c   6.64198667
_cell_angle_alpha   59.99999608
_cell_angle_beta   59.99999625
_cell_angle_gamma   59.99999741
_symmetry_Int_Tables_number   1
_chemical_formula_structural   Cs3Bi
_chemical_formula_sum   'Cs3 Bi1'
_cell_volume   207.19487267
_cell_formula_units_Z   1
loop_
 _symmetry_equiv_pos_site_id
 _symmetry_equiv_pos_as_xyz
  1  'x, y, z'
loop_
 _atom_site_type_symbol
 _atom_site_label
 _atom_site_symmetry_multiplicity
 _atom_site_fract_x
 _atom_site_fract_y
 _atom_site_fract_z
 _atom_site_occupancy
  Cs  Cs0  1  0.25000000  0.25000000  0.25000000  1
  Cs  Cs1  1  0.75000000  0.75000000  0.75000000  1
  Cs  Cs2  1  0.50000000  0.50000000  0.50000000  1
  Bi  Bi3  1  0.00000000  0.00000000  -0.00000000  1
