# generated using pymatgen
data_CeSI
_symmetry_space_group_name_H-M   'P 1'
_cell_length_a   7.09926209
_cell_length_b   7.36134317
_cell_length_c   14.53025261
_cell_angle_alpha   90.00000000
_cell_angle_beta   90.00000000
_cell_angle_gamma   90.00000000
_symmetry_Int_Tables_number   1
_chemical_formula_structural   CeSI
_chemical_formula_sum   'Ce8 S8 I8'
_cell_volume   759.35251978
_cell_formula_units_Z   8
loop_
 _symmetry_equiv_pos_site_id
 _symmetry_equiv_pos_as_xyz
  1  'x, y, z'
loop_
 _atom_site_type_symbol
 _atom_site_label
 _atom_site_symmetry_multiplicity
 _atom_site_fract_x
 _atom_site_fract_y
 _atom_site_fract_z
 _atom_site_occupancy
  Ce  Ce0  1  0.25790952  0.46817592  0.41706944  1
  Ce  Ce1  1  0.75790952  0.03182408  0.41706944  1
  Ce  Ce2  1  0.74209048  0.03182408  0.91706944  1
  Ce  Ce3  1  0.25790952  0.96817592  0.08293056  1
  Ce  Ce4  1  0.24209048  0.96817592  0.58293056  1
  Ce  Ce5  1  0.75790952  0.53182408  0.08293056  1
  Ce  Ce6  1  0.74209048  0.53182408  0.58293056  1
  Ce  Ce7  1  0.24209048  0.46817592  0.91706944  1
  S  S8  1  0.49971071  0.25804416  0.02319251  1
  S  S9  1  0.49971071  0.75804416  0.47680749  1
  S  S10  1  0.00028929  0.25804416  0.52319251  1
  S  S11  1  0.50028929  0.74195584  0.97680749  1
  S  S12  1  0.99971071  0.24195584  0.02319251  1
  S  S13  1  0.99971071  0.74195584  0.47680749  1
  S  S14  1  0.00028929  0.75804416  0.97680749  1
  S  S15  1  0.50028929  0.24195584  0.52319251  1
  I  I16  1  0.67448813  0.90171887  0.20086404  1
  I  I17  1  0.17448813  0.59828113  0.20086404  1
  I  I18  1  0.17448813  0.09828113  0.29913596  1
  I  I19  1  0.32551187  0.09828113  0.79913596  1
  I  I20  1  0.82551187  0.90171887  0.70086404  1
  I  I21  1  0.32551187  0.59828113  0.70086404  1
  I  I22  1  0.67448813  0.40171887  0.29913596  1
  I  I23  1  0.82551187  0.40171887  0.79913596  1
