# generated using pymatgen
data_US2
_symmetry_space_group_name_H-M   'P 1'
_cell_length_a   4.06966608
_cell_length_b   7.15871711
_cell_length_c   8.56399754
_cell_angle_alpha   90.00000000
_cell_angle_beta   90.00000000
_cell_angle_gamma   90.00000000
_symmetry_Int_Tables_number   1
_chemical_formula_structural   US2
_chemical_formula_sum   'U4 S8'
_cell_volume   249.49997767
_cell_formula_units_Z   4
loop_
 _symmetry_equiv_pos_site_id
 _symmetry_equiv_pos_as_xyz
  1  'x, y, z'
loop_
 _atom_site_type_symbol
 _atom_site_label
 _atom_site_symmetry_multiplicity
 _atom_site_fract_x
 _atom_site_fract_y
 _atom_site_fract_z
 _atom_site_occupancy
  U  U0  1  0.25000000  0.25373209  0.62319035  1
  U  U1  1  0.75000000  0.74627457  0.37680156  1
  U  U2  1  0.25000000  0.75373209  0.87680965  1
  U  U3  1  0.75000000  0.24627457  0.12319844  1
  S  S4  1  0.25000000  0.53375317  0.16364509  1
  S  S5  1  0.75000000  0.46622177  0.83635943  1
  S  S6  1  0.25000000  0.03375317  0.33635491  1
  S  S7  1  0.75000000  0.96622177  0.66364057  1
  S  S8  1  0.25000000  0.13794443  0.92850927  1
  S  S9  1  0.75000000  0.86207397  0.07153927  1
  S  S10  1  0.25000000  0.63794443  0.57149073  1
  S  S11  1  0.75000000  0.36207397  0.42846073  1
