# generated using pymatgen
data_MgH12(ClO3)2
_symmetry_space_group_name_H-M   'P 1'
_cell_length_a   5.99451809
_cell_length_b   5.99451809
_cell_length_c   6.04430965
_cell_angle_alpha   86.95989813
_cell_angle_beta   86.95989813
_cell_angle_gamma   71.06401082
_symmetry_Int_Tables_number   1
_chemical_formula_structural   MgH12(ClO3)2
_chemical_formula_sum   'Mg1 H12 Cl2 O6'
_cell_volume   205.00660936
_cell_formula_units_Z   1
loop_
 _symmetry_equiv_pos_site_id
 _symmetry_equiv_pos_as_xyz
  1  'x, y, z'
loop_
 _atom_site_type_symbol
 _atom_site_label
 _atom_site_symmetry_multiplicity
 _atom_site_fract_x
 _atom_site_fract_y
 _atom_site_fract_z
 _atom_site_occupancy
  Mg  Mg0  1  0.00000000  0.00000000  0.00000000  1
  H  H1  1  0.24313576  0.24313576  0.73723811  1
  H  H2  1  0.75686424  0.75686424  0.26276189  1
  H  H3  1  0.27639257  0.27639257  0.98957613  1
  H  H4  1  0.72360743  0.72360743  0.01042387  1
  H  H5  1  0.71938790  0.32710517  0.71396905  1
  H  H6  1  0.32710517  0.71938790  0.71396905  1
  H  H7  1  0.28061210  0.67289483  0.28603095  1
  H  H8  1  0.67289483  0.28061210  0.28603095  1
  H  H9  1  0.68052354  0.08182299  0.67958330  1
  H  H10  1  0.08182299  0.68052354  0.67958330  1
  H  H11  1  0.31947646  0.91817701  0.32041670  1
  H  H12  1  0.91817701  0.31947646  0.32041670  1
  Cl  Cl13  1  0.31505569  0.31505569  0.38972963  1
  Cl  Cl14  1  0.68494431  0.68494431  0.61027037  1
  O  O15  1  0.20280327  0.20280327  0.88941584  1
  O  O16  1  0.79719673  0.79719673  0.11058416  1
  O  O17  1  0.74468746  0.16746816  0.77686879  1
  O  O18  1  0.16746816  0.74468746  0.77686879  1
  O  O19  1  0.25531254  0.83253184  0.22313121  1
  O  O20  1  0.83253184  0.25531254  0.22313121  1
