# generated using pymatgen
data_Ce2P3Au
_symmetry_space_group_name_H-M   'P 1'
_cell_length_a   4.19836021
_cell_length_b   7.73889008
_cell_length_c   16.12555633
_cell_angle_alpha   90.00000000
_cell_angle_beta   90.00000000
_cell_angle_gamma   90.00000000
_symmetry_Int_Tables_number   1
_chemical_formula_structural   Ce2P3Au
_chemical_formula_sum   'Ce8 P12 Au4'
_cell_volume   523.92977745
_cell_formula_units_Z   4
loop_
 _symmetry_equiv_pos_site_id
 _symmetry_equiv_pos_as_xyz
  1  'x, y, z'
loop_
 _atom_site_type_symbol
 _atom_site_label
 _atom_site_symmetry_multiplicity
 _atom_site_fract_x
 _atom_site_fract_y
 _atom_site_fract_z
 _atom_site_occupancy
  Ce  Ce0  1  0.25000000  0.23678596  0.47543580  1
  Ce  Ce1  1  0.75000000  0.89885591  0.79540751  1
  Ce  Ce2  1  0.75000000  0.26321404  0.97543580  1
  Ce  Ce3  1  0.75000000  0.39885591  0.70459249  1
  Ce  Ce4  1  0.25000000  0.60114409  0.29540751  1
  Ce  Ce5  1  0.25000000  0.10114409  0.20459249  1
  Ce  Ce6  1  0.75000000  0.76321404  0.52456420  1
  Ce  Ce7  1  0.25000000  0.73678596  0.02456420  1
  P  P8  1  0.25000000  0.38445349  0.08825362  1
  P  P9  1  0.25000000  0.70237672  0.70082327  1
  P  P10  1  0.75000000  0.11554651  0.58825362  1
  P  P11  1  0.75000000  0.29762328  0.29917673  1
  P  P12  1  0.75000000  0.79762328  0.20082327  1
  P  P13  1  0.25000000  0.88445349  0.41174638  1
  P  P14  1  0.25000000  0.53084683  0.59408729  1
  P  P15  1  0.75000000  0.61554651  0.91174638  1
  P  P16  1  0.75000000  0.96915317  0.09408729  1
  P  P17  1  0.25000000  0.20237672  0.79917673  1
  P  P18  1  0.75000000  0.46915317  0.40591271  1
  P  P19  1  0.25000000  0.03084683  0.90591271  1
  Au  Au20  1  0.25000000  0.00909759  0.64987298  1
  Au  Au21  1  0.75000000  0.99090241  0.35012702  1
  Au  Au22  1  0.25000000  0.50909759  0.85012702  1
  Au  Au23  1  0.75000000  0.49090241  0.14987298  1
