# generated using pymatgen
data_Ce2InNi2
_symmetry_space_group_name_H-M   'P 1'
_cell_length_a   3.61786349
_cell_length_b   7.49914482
_cell_length_c   7.49914482
_cell_angle_alpha   90.00743096
_cell_angle_beta   90.00000000
_cell_angle_gamma   90.00000000
_symmetry_Int_Tables_number   1
_chemical_formula_structural   Ce2InNi2
_chemical_formula_sum   'Ce4 In2 Ni4'
_cell_volume   203.45841315
_cell_formula_units_Z   2
loop_
 _symmetry_equiv_pos_site_id
 _symmetry_equiv_pos_as_xyz
  1  'x, y, z'
loop_
 _atom_site_type_symbol
 _atom_site_label
 _atom_site_symmetry_multiplicity
 _atom_site_fract_x
 _atom_site_fract_y
 _atom_site_fract_z
 _atom_site_occupancy
  Ce  Ce0  1  0.50000000  0.17202610  0.67202610  1
  Ce  Ce1  1  0.50000000  0.32776191  0.17223809  1
  Ce  Ce2  1  0.50000000  0.67223809  0.82776191  1
  Ce  Ce3  1  0.50000000  0.82797390  0.32797390  1
  In  In4  1  0.00000000  0.00000000  -0.00000000  1
  In  In5  1  0.00000000  0.50000000  0.50000000  1
  Ni  Ni6  1  -0.00000000  0.37413214  0.87413214  1
  Ni  Ni7  1  0.00000000  0.87443388  0.62556612  1
  Ni  Ni8  1  0.00000000  0.62586786  0.12586786  1
  Ni  Ni9  1  -0.00000000  0.12556612  0.37443388  1
