# generated using pymatgen
data_U2Te3
_symmetry_space_group_name_H-M   'P 1'
_cell_length_a   4.39987780
_cell_length_b   12.03889492
_cell_length_c   12.22594531
_cell_angle_alpha   90.10884237
_cell_angle_beta   90.00367660
_cell_angle_gamma   90.01230055
_symmetry_Int_Tables_number   1
_chemical_formula_structural   U2Te3
_chemical_formula_sum   'U8 Te12'
_cell_volume   647.60306016
_cell_formula_units_Z   4
loop_
 _symmetry_equiv_pos_site_id
 _symmetry_equiv_pos_as_xyz
  1  'x, y, z'
loop_
 _atom_site_type_symbol
 _atom_site_label
 _atom_site_symmetry_multiplicity
 _atom_site_fract_x
 _atom_site_fract_y
 _atom_site_fract_z
 _atom_site_occupancy
  U  U0  1  0.25134931  0.31276861  0.01248229  1
  U  U1  1  0.25240108  0.50430848  0.69465064  1
  U  U2  1  0.25274506  0.18745062  0.51315096  1
  U  U3  1  0.74939321  0.00203928  0.80463549  1
  U  U4  1  0.24912768  0.99828465  0.19566139  1
  U  U5  1  0.74733776  0.81307026  0.48644166  1
  U  U6  1  0.74980740  0.49581647  0.30476212  1
  U  U7  1  0.75225005  0.68687238  0.98786641  1
  Te  Te8  1  0.25048258  0.55450007  0.12072872  1
  Te  Te9  1  0.24802992  0.94492413  0.62048216  1
  Te  Te10  1  0.75222592  0.70059538  0.72615896  1
  Te  Te11  1  0.24953178  0.62540797  0.45207295  1
  Te  Te12  1  0.24685766  0.19774292  0.77479586  1
  Te  Te13  1  0.25118971  0.87352287  0.95319990  1
  Te  Te14  1  0.74887038  0.80129519  0.22627131  1
  Te  Te15  1  0.75124868  0.05513205  0.37914497  1
  Te  Te16  1  0.75152739  0.37449441  0.54733419  1
  Te  Te17  1  0.74929270  0.12605141  0.04717629  1
  Te  Te18  1  0.74983190  0.44570844  0.87912277  1
  Te  Te19  1  0.24649984  0.30001541  0.27386094  1
