# generated using pymatgen
data_Cs2NpBr6
_symmetry_space_group_name_H-M   'P 1'
_cell_length_a   7.92902430
_cell_length_b   7.92902878
_cell_length_c   7.85017236
_cell_angle_alpha   60.32841197
_cell_angle_beta   60.32845054
_cell_angle_gamma   59.34313591
_symmetry_Int_Tables_number   1
_chemical_formula_structural   Cs2NpBr6
_chemical_formula_sum   'Cs2 Np1 Br6'
_cell_volume   348.91437614
_cell_formula_units_Z   1
loop_
 _symmetry_equiv_pos_site_id
 _symmetry_equiv_pos_as_xyz
  1  'x, y, z'
loop_
 _atom_site_type_symbol
 _atom_site_label
 _atom_site_symmetry_multiplicity
 _atom_site_fract_x
 _atom_site_fract_y
 _atom_site_fract_z
 _atom_site_occupancy
  Cs  Cs0  1  0.25000000  0.25000000  0.25000000  1
  Cs  Cs1  1  0.75000000  0.75000000  0.75000000  1
  Np  Np2  1  0.00000000  -0.00000000  0.00000000  1
  Br  Br3  1  0.24715658  0.75284342  0.75284342  1
  Br  Br4  1  0.75284342  0.24715658  0.24715658  1
  Br  Br5  1  0.75284542  0.24715458  0.75284542  1
  Br  Br6  1  0.24715458  0.75284542  0.24715458  1
  Br  Br7  1  0.24653685  0.24653685  0.75346315  1
  Br  Br8  1  0.75346315  0.75346315  0.24653685  1
