# generated using pymatgen
data_KEuPSe4
_symmetry_space_group_name_H-M   'P 1'
_cell_length_a   6.82166288
_cell_length_b   6.94045480
_cell_length_c   17.42114529
_cell_angle_alpha   90.00000000
_cell_angle_beta   90.00000000
_cell_angle_gamma   90.00000000
_symmetry_Int_Tables_number   1
_chemical_formula_structural   KEuPSe4
_chemical_formula_sum   'K4 Eu4 P4 Se16'
_cell_volume   824.81183922
_cell_formula_units_Z   4
loop_
 _symmetry_equiv_pos_site_id
 _symmetry_equiv_pos_as_xyz
  1  'x, y, z'
loop_
 _atom_site_type_symbol
 _atom_site_label
 _atom_site_symmetry_multiplicity
 _atom_site_fract_x
 _atom_site_fract_y
 _atom_site_fract_z
 _atom_site_occupancy
  K  K0  1  0.02879364  0.25000000  0.71431294  1
  K  K1  1  0.47120636  0.25000000  0.21431294  1
  K  K2  1  0.52879364  0.75000000  0.78568706  1
  K  K3  1  0.97120636  0.75000000  0.28568706  1
  Eu  Eu4  1  0.29065157  0.25000000  0.47546253  1
  Eu  Eu5  1  0.70934843  0.75000000  0.52453747  1
  Eu  Eu6  1  0.79065157  0.75000000  0.02453747  1
  Eu  Eu7  1  0.20934843  0.25000000  0.97546253  1
  P  P8  1  0.22005648  0.75000000  0.59430643  1
  P  P9  1  0.27994352  0.75000000  0.09430643  1
  P  P10  1  0.77994352  0.25000000  0.40569357  1
  P  P11  1  0.72005648  0.25000000  0.90569357  1
  Se  Se12  1  0.46383335  0.25000000  0.82975880  1
  Se  Se13  1  0.53616665  0.75000000  0.17024120  1
  Se  Se14  1  0.40655092  0.49698307  0.61730228  1
  Se  Se15  1  0.90655092  0.50301693  0.88269772  1
  Se  Se16  1  0.96383335  0.75000000  0.67024120  1
  Se  Se17  1  0.59344908  0.50301693  0.38269772  1
  Se  Se18  1  0.09344908  0.00301693  0.11730228  1
  Se  Se19  1  0.03616665  0.25000000  0.32975880  1
  Se  Se20  1  0.40655092  0.00301693  0.61730228  1
  Se  Se21  1  0.90655092  0.99698307  0.88269772  1
  Se  Se22  1  0.35699928  0.75000000  0.97128689  1
  Se  Se23  1  0.14300072  0.75000000  0.47128689  1
  Se  Se24  1  0.64300072  0.25000000  0.02871311  1
  Se  Se25  1  0.59344908  0.99698307  0.38269772  1
  Se  Se26  1  0.85699928  0.25000000  0.52871311  1
  Se  Se27  1  0.09344908  0.49698307  0.11730228  1
