# generated using pymatgen
data_Zr9(In2Co)7
_symmetry_space_group_name_H-M   'P 1'
_cell_length_a   9.39422887
_cell_length_b   9.39423475
_cell_length_c   9.39423121
_cell_angle_alpha   59.99975405
_cell_angle_beta   59.99980917
_cell_angle_gamma   59.99975544
_symmetry_Int_Tables_number   1
_chemical_formula_structural   Zr9(In2Co)7
_chemical_formula_sum   'Zr9 In14 Co7'
_cell_volume   586.22799710
_cell_formula_units_Z   1
loop_
 _symmetry_equiv_pos_site_id
 _symmetry_equiv_pos_as_xyz
  1  'x, y, z'
loop_
 _atom_site_type_symbol
 _atom_site_label
 _atom_site_symmetry_multiplicity
 _atom_site_fract_x
 _atom_site_fract_y
 _atom_site_fract_z
 _atom_site_occupancy
  Zr  Zr0  1  0.12094909  0.63719340  0.12093108  1
  Zr  Zr1  1  0.36280731  0.87905095  0.87907309  1
  Zr  Zr2  1  0.87906888  0.87907449  0.87905067  1
  Zr  Zr3  1  0.63719550  0.12095030  0.12092659  1
  Zr  Zr4  1  0.49999995  0.49999913  0.50000037  1
  Zr  Zr5  1  0.87907232  0.87907269  0.36280504  1
  Zr  Zr6  1  0.12092784  0.12092803  0.12095028  1
  Zr  Zr7  1  0.87904947  0.36280525  0.87907194  1
  Zr  Zr8  1  0.12092581  0.12093170  0.63719309  1
  In  In9  1  0.49999777  0.84146436  0.15853807  1
  In  In10  1  0.49999705  0.84146687  0.50000298  1
  In  In11  1  0.50000587  0.15853380  0.49999403  1
  In  In12  1  0.49999736  0.50000021  0.84146507  1
  In  In13  1  0.15853597  0.50000206  0.49999745  1
  In  In14  1  0.84146418  0.15853619  0.49999678  1
  In  In15  1  0.15853499  0.84146252  0.50000309  1
  In  In16  1  0.50000314  0.15853556  0.84146383  1
  In  In17  1  0.15853305  0.50000357  0.84146688  1
  In  In18  1  0.50000365  0.49999672  0.15853583  1
  In  In19  1  0.84146395  0.49999782  0.50000189  1
  In  In20  1  0.84146615  0.49999505  0.15853387  1
  In  In21  1  0.24999981  0.25000005  0.25000015  1
  In  In22  1  0.75000000  0.75000024  0.75000021  1
  Co  Co23  1  0.77797567  0.77797559  0.22202499  1
  Co  Co24  1  0.00000097  0.99999897  -0.00000011  1
  Co  Co25  1  0.22203089  0.77796916  0.22203054  1
  Co  Co26  1  0.22202952  0.77797148  0.77797073  1
  Co  Co27  1  0.22202534  0.22202537  0.77797396  1
  Co  Co28  1  0.77796948  0.22203157  0.77796928  1
  Co  Co29  1  0.77797105  0.22202889  0.22202833  1
