# generated using pymatgen
data_U3Se5
_symmetry_space_group_name_H-M   'P 1'
_cell_length_a   7.84139946
_cell_length_b   8.38042145
_cell_length_c   12.47414929
_cell_angle_alpha   90.00000000
_cell_angle_beta   90.00000000
_cell_angle_gamma   90.00000000
_symmetry_Int_Tables_number   1
_chemical_formula_structural   U3Se5
_chemical_formula_sum   'U12 Se20'
_cell_volume   819.72914335
_cell_formula_units_Z   4
loop_
 _symmetry_equiv_pos_site_id
 _symmetry_equiv_pos_as_xyz
  1  'x, y, z'
loop_
 _atom_site_type_symbol
 _atom_site_label
 _atom_site_symmetry_multiplicity
 _atom_site_fract_x
 _atom_site_fract_y
 _atom_site_fract_z
 _atom_site_occupancy
  U  U0  1  0.52108460  0.49942922  0.32107835  1
  U  U1  1  0.97891540  0.00057078  0.82107835  1
  U  U2  1  0.47891540  -0.00057078  0.67892165  1
  U  U3  1  0.02108460  0.50057078  0.17892165  1
  U  U4  1  0.47891540  0.50057078  0.67892165  1
  U  U5  1  0.02108460  -0.00057078  0.17892165  1
  U  U6  1  0.52108460  0.00057078  0.32107835  1
  U  U7  1  0.97891540  0.49942922  0.82107835  1
  U  U8  1  0.07409679  0.75000000  0.49166453  1
  U  U9  1  0.42590321  0.75000000  0.99166453  1
  U  U10  1  0.92590321  0.25000000  0.50833547  1
  U  U11  1  0.57409679  0.25000000  0.00833547  1
  Se  Se12  1  0.83565106  0.95573932  0.59900779  1
  Se  Se13  1  0.66434894  0.54426068  0.09900779  1
  Se  Se14  1  0.16434894  0.45573932  0.40099221  1
  Se  Se15  1  0.33565106  0.04426068  0.90099221  1
  Se  Se16  1  0.16434894  0.04426068  0.40099221  1
  Se  Se17  1  0.33565106  0.45573932  0.90099221  1
  Se  Se18  1  0.83565106  0.54426068  0.59900779  1
  Se  Se19  1  0.66434894  0.95573932  0.09900779  1
  Se  Se20  1  0.82752006  0.75000000  0.31482329  1
  Se  Se21  1  0.67247994  0.75000000  0.81482329  1
  Se  Se22  1  0.17247994  0.25000000  0.68517671  1
  Se  Se23  1  0.32752006  0.25000000  0.18517671  1
  Se  Se24  1  0.45887839  0.75000000  0.50098772  1
  Se  Se25  1  0.04112161  0.75000000  0.00098772  1
  Se  Se26  1  0.54112161  0.25000000  0.49901228  1
  Se  Se27  1  0.95887839  0.25000000  0.99901228  1
  Se  Se28  1  0.19814811  0.75000000  0.71615425  1
  Se  Se29  1  0.30185189  0.75000000  0.21615425  1
  Se  Se30  1  0.80185189  0.25000000  0.28384575  1
  Se  Se31  1  0.69814811  0.25000000  0.78384575  1
