# generated using pymatgen
data_P
_symmetry_space_group_name_H-M   'P 1'
_cell_length_a   3.71788827
_cell_length_b   3.55569008
_cell_length_c   3.55569078
_cell_angle_alpha   56.81236884
_cell_angle_beta   58.47919046
_cell_angle_gamma   58.47919299
_symmetry_Int_Tables_number   1
_chemical_formula_structural   P
_chemical_formula_sum   P2
_cell_volume   31.63496790
_cell_formula_units_Z   2
loop_
 _symmetry_equiv_pos_site_id
 _symmetry_equiv_pos_as_xyz
  1  'x, y, z'
loop_
 _atom_site_type_symbol
 _atom_site_label
 _atom_site_symmetry_multiplicity
 _atom_site_fract_x
 _atom_site_fract_y
 _atom_site_fract_z
 _atom_site_occupancy
  P  P0  1  0.19669089  0.25000000  0.75000000  1
  P  P1  1  0.80330911  0.75000000  0.25000000  1
