# generated using pymatgen
data_Al2CoCl8
_symmetry_space_group_name_H-M   'P 1'
_cell_length_a   7.67283958
_cell_length_b   7.67283958
_cell_length_c   11.51243225
_cell_angle_alpha   89.56714702
_cell_angle_beta   89.56714702
_cell_angle_gamma   62.09681645
_symmetry_Int_Tables_number   1
_chemical_formula_structural   Al2CoCl8
_chemical_formula_sum   'Al4 Co2 Cl16'
_cell_volume   598.94475842
_cell_formula_units_Z   2
loop_
 _symmetry_equiv_pos_site_id
 _symmetry_equiv_pos_as_xyz
  1  'x, y, z'
loop_
 _atom_site_type_symbol
 _atom_site_label
 _atom_site_symmetry_multiplicity
 _atom_site_fract_x
 _atom_site_fract_y
 _atom_site_fract_z
 _atom_site_occupancy
  Al  Al0  1  0.83454864  0.32469327  0.44931832  1
  Al  Al1  1  0.67530673  0.16545136  0.05068168  1
  Al  Al2  1  0.32469327  0.83454864  0.94931832  1
  Al  Al3  1  0.16545136  0.67530673  0.55068168  1
  Co  Co4  1  0.00677912  0.99322088  0.75000000  1
  Co  Co5  1  0.99322088  0.00677912  0.25000000  1
  Cl  Cl6  1  0.84122509  0.87455967  0.13398790  1
  Cl  Cl7  1  0.87455967  0.84122509  0.63398790  1
  Cl  Cl8  1  0.69509056  0.62238192  0.40117545  1
  Cl  Cl9  1  0.84639596  0.29694512  0.12141812  1
  Cl  Cl10  1  0.85465167  0.30429553  0.63615644  1
  Cl  Cl11  1  0.62238192  0.69509056  0.90117545  1
  Cl  Cl12  1  0.70305488  0.15360404  0.37858188  1
  Cl  Cl13  1  0.69570447  0.14534833  0.86384356  1
  Cl  Cl14  1  0.30429553  0.85465167  0.13615644  1
  Cl  Cl15  1  0.29694512  0.84639596  0.62141812  1
  Cl  Cl16  1  0.37761808  0.30490944  0.09882455  1
  Cl  Cl17  1  0.14534833  0.69570447  0.36384356  1
  Cl  Cl18  1  0.15360404  0.70305488  0.87858188  1
  Cl  Cl19  1  0.30490944  0.37761808  0.59882455  1
  Cl  Cl20  1  0.12544033  0.15877491  0.36601210  1
  Cl  Cl21  1  0.15877491  0.12544033  0.86601210  1
