# generated using pymatgen
data_KPH3O4F
_symmetry_space_group_name_H-M   'P 1'
_cell_length_a   6.11605440
_cell_length_b   11.98318972
_cell_length_c   6.96304155
_cell_angle_alpha   90.00000000
_cell_angle_beta   115.90407144
_cell_angle_gamma   90.00000000
_symmetry_Int_Tables_number   1
_chemical_formula_structural   KPH3O4F
_chemical_formula_sum   'K4 P4 H12 O16 F4'
_cell_volume   459.04666666
_cell_formula_units_Z   4
loop_
 _symmetry_equiv_pos_site_id
 _symmetry_equiv_pos_as_xyz
  1  'x, y, z'
loop_
 _atom_site_type_symbol
 _atom_site_label
 _atom_site_symmetry_multiplicity
 _atom_site_fract_x
 _atom_site_fract_y
 _atom_site_fract_z
 _atom_site_occupancy
  K  K0  1  0.14933380  0.13290500  0.88694649  1
  K  K1  1  0.14933380  0.36709500  0.38694649  1
  K  K2  1  0.85066620  0.63290500  0.61305351  1
  K  K3  1  0.85066620  0.86709500  0.11305351  1
  P  P4  1  0.34704846  0.86036453  0.59230462  1
  P  P5  1  0.65295154  0.36036453  0.90769538  1
  P  P6  1  0.34704846  0.63963547  0.09230462  1
  P  P7  1  0.65295154  0.13963547  0.40769538  1
  H  H8  1  0.02662346  0.88598793  0.70876832  1
  H  H9  1  0.02662346  0.61401207  0.20876832  1
  H  H10  1  0.45221244  0.70613729  0.78272975  1
  H  H11  1  0.46608191  0.52184894  0.81010497  1
  H  H12  1  0.53391809  0.02184894  0.68989503  1
  H  H13  1  0.54778756  0.20613729  0.71727025  1
  H  H14  1  0.45221244  0.79386271  0.28272975  1
  H  H15  1  0.46608191  0.97815106  0.31010497  1
  H  H16  1  0.53391809  0.47815106  0.18989503  1
  H  H17  1  0.54778756  0.29386271  0.21727025  1
  H  H18  1  0.97337654  0.38598793  0.79123168  1
  H  H19  1  0.97337654  0.11401207  0.29123168  1
  O  O20  1  0.09450194  0.83492075  0.56676400  1
  O  O21  1  0.36297085  0.62056059  0.88405189  1
  O  O22  1  0.09450194  0.66507925  0.06676400  1
  O  O23  1  0.44636201  0.96523183  0.73950026  1
  O  O24  1  0.47838162  0.26118835  0.78902411  1
  O  O25  1  0.52161838  0.76118835  0.71097589  1
  O  O26  1  0.36297085  0.87943941  0.38405189  1
  O  O27  1  0.55363799  0.46523183  0.76049974  1
  O  O28  1  0.44636201  0.53476817  0.23950026  1
  O  O29  1  0.63702915  0.12056059  0.61594811  1
  O  O30  1  0.47838162  0.23881165  0.28902411  1
  O  O31  1  0.52161838  0.73881165  0.21097589  1
  O  O32  1  0.55363799  0.03476717  0.26049974  1
  O  O33  1  0.90549806  0.33492075  0.93323600  1
  O  O34  1  0.63702915  0.37943941  0.11594811  1
  O  O35  1  0.90549806  0.16507925  0.43323600  1
  F  F36  1  0.02008185  0.42363853  0.68361904  1
  F  F37  1  0.02008185  0.07636147  0.18361904  1
  F  F38  1  0.97991815  0.92363853  0.81638096  1
  F  F39  1  0.97991815  0.57636147  0.31638096  1
