# generated using pymatgen
data_In2HgO4
_symmetry_space_group_name_H-M   'P 1'
_cell_length_a   6.57642610
_cell_length_b   6.57642610
_cell_length_c   6.57642610
_cell_angle_alpha   60.00000000
_cell_angle_beta   60.00000000
_cell_angle_gamma   60.00000000
_symmetry_Int_Tables_number   1
_chemical_formula_structural   In2HgO4
_chemical_formula_sum   'In4 Hg2 O8'
_cell_volume   201.11980284
_cell_formula_units_Z   2
loop_
 _symmetry_equiv_pos_site_id
 _symmetry_equiv_pos_as_xyz
  1  'x, y, z'
loop_
 _atom_site_type_symbol
 _atom_site_label
 _atom_site_symmetry_multiplicity
 _atom_site_fract_x
 _atom_site_fract_y
 _atom_site_fract_z
 _atom_site_occupancy
  In  In0  1  0.50000000  0.50000000  0.00000000  1
  In  In1  1  0.50000000  -0.00000000  0.50000000  1
  In  In2  1  0.00000000  0.50000000  0.50000000  1
  In  In3  1  0.50000000  0.50000000  0.50000000  1
  Hg  Hg4  1  0.12500000  0.12500000  0.12500000  1
  Hg  Hg5  1  0.87500000  0.87500000  0.87500000  1
  O  O6  1  0.26556001  0.26556001  0.26556001  1
  O  O7  1  0.70331696  0.26556001  0.26556001  1
  O  O8  1  0.73443999  0.73443999  0.29668304  1
  O  O9  1  0.73443999  0.29668304  0.73443999  1
  O  O10  1  0.26556001  0.70331696  0.26556001  1
  O  O11  1  0.26556001  0.26556001  0.70331696  1
  O  O12  1  0.29668304  0.73443999  0.73443999  1
  O  O13  1  0.73443999  0.73443999  0.73443999  1
