# generated using pymatgen
data_YbTiO3
_symmetry_space_group_name_H-M   'P 1'
_cell_length_a   5.68692670
_cell_length_b   5.68692670
_cell_length_c   5.68692686
_cell_angle_alpha   56.68583608
_cell_angle_beta   56.68583608
_cell_angle_gamma   56.68583014
_symmetry_Int_Tables_number   1
_chemical_formula_structural   YbTiO3
_chemical_formula_sum   'Yb2 Ti2 O6'
_cell_volume   120.09880182
_cell_formula_units_Z   2
loop_
 _symmetry_equiv_pos_site_id
 _symmetry_equiv_pos_as_xyz
  1  'x, y, z'
loop_
 _atom_site_type_symbol
 _atom_site_label
 _atom_site_symmetry_multiplicity
 _atom_site_fract_x
 _atom_site_fract_y
 _atom_site_fract_z
 _atom_site_occupancy
  Yb  Yb0  1  0.35962053  0.35962053  0.35962053  1
  Yb  Yb1  1  0.64037947  0.64037947  0.64037947  1
  Ti  Ti2  1  0.15167225  0.15167225  0.15167225  1
  Ti  Ti3  1  0.84832775  0.84832775  0.84832775  1
  O  O4  1  0.44466197  0.77201467  0.04546403  1
  O  O5  1  0.77201467  0.04546403  0.44466197  1
  O  O6  1  0.04546403  0.44466197  0.77201467  1
  O  O7  1  0.95453597  0.55533803  0.22798533  1
  O  O8  1  0.22798533  0.95453597  0.55533803  1
  O  O9  1  0.55533803  0.22798533  0.95453597  1
