# generated using pymatgen
data_Na2Cd2O3
_symmetry_space_group_name_H-M   'P 1'
_cell_length_a   5.95758099
_cell_length_b   6.23333055
_cell_length_c   6.51493484
_cell_angle_alpha   61.99042106
_cell_angle_beta   90.00000000
_cell_angle_gamma   90.00000000
_symmetry_Int_Tables_number   1
_chemical_formula_structural   Na2Cd2O3
_chemical_formula_sum   'Na4 Cd4 O6'
_cell_volume   213.59766583
_cell_formula_units_Z   2
loop_
 _symmetry_equiv_pos_site_id
 _symmetry_equiv_pos_as_xyz
  1  'x, y, z'
loop_
 _atom_site_type_symbol
 _atom_site_label
 _atom_site_symmetry_multiplicity
 _atom_site_fract_x
 _atom_site_fract_y
 _atom_site_fract_z
 _atom_site_occupancy
  Na  Na0  1  0.33619636  0.12447592  0.09055997  1
  Na  Na1  1  0.16380364  0.62447592  0.09055997  1
  Na  Na2  1  0.83619636  0.37552408  0.90944003  1
  Na  Na3  1  0.66380364  0.87552408  0.90944003  1
  Cd  Cd4  1  0.62603761  0.39982187  0.34958908  1
  Cd  Cd5  1  0.12603761  0.10017813  0.65041092  1
  Cd  Cd6  1  0.87396239  0.89982187  0.34958908  1
  Cd  Cd7  1  0.37396239  0.60017813  0.65041092  1
  O  O8  1  0.50000000  0.50000000  0.00000000  1
  O  O9  1  -0.00000000  -0.00000000  0.00000000  1
  O  O10  1  0.96169474  0.27783636  0.31082782  1
  O  O11  1  0.46169474  0.22216364  0.68917218  1
  O  O12  1  0.53830526  0.77783636  0.31082782  1
  O  O13  1  0.03830526  0.72216364  0.68917218  1
