# generated using pymatgen
data_Ho2InPd2
_symmetry_space_group_name_H-M   'P 1'
_cell_length_a   3.60172996
_cell_length_b   7.73452473
_cell_length_c   7.73452473
_cell_angle_alpha   90.00000000
_cell_angle_beta   90.00000000
_cell_angle_gamma   90.00000000
_symmetry_Int_Tables_number   1
_chemical_formula_structural   Ho2InPd2
_chemical_formula_sum   'Ho4 In2 Pd4'
_cell_volume   215.46583325
_cell_formula_units_Z   2
loop_
 _symmetry_equiv_pos_site_id
 _symmetry_equiv_pos_as_xyz
  1  'x, y, z'
loop_
 _atom_site_type_symbol
 _atom_site_label
 _atom_site_symmetry_multiplicity
 _atom_site_fract_x
 _atom_site_fract_y
 _atom_site_fract_z
 _atom_site_occupancy
  Ho  Ho0  1  0.50000000  0.82735969  0.32735969  1
  Ho  Ho1  1  0.50000000  0.67264031  0.82735969  1
  Ho  Ho2  1  0.50000000  0.32735969  0.17264031  1
  Ho  Ho3  1  0.50000000  0.17264031  0.67264031  1
  In  In4  1  0.00000000  0.00000000  -0.00000000  1
  In  In5  1  0.00000000  0.50000000  0.50000000  1
  Pd  Pd6  1  0.00000000  0.12783977  0.37216023  1
  Pd  Pd7  1  0.00000000  0.37216023  0.87216023  1
  Pd  Pd8  1  -0.00000000  0.62783977  0.12783977  1
  Pd  Pd9  1  -0.00000000  0.87216023  0.62783977  1
