# generated using pymatgen
data_CO2
_symmetry_space_group_name_H-M   'P 1'
_cell_length_a   3.33881410
_cell_length_b   5.28636747
_cell_length_c   9.73048879
_cell_angle_alpha   90.00000000
_cell_angle_beta   90.00000000
_cell_angle_gamma   90.00000000
_symmetry_Int_Tables_number   1
_chemical_formula_structural   CO2
_chemical_formula_sum   'C4 O8'
_cell_volume   171.74505607
_cell_formula_units_Z   4
loop_
 _symmetry_equiv_pos_site_id
 _symmetry_equiv_pos_as_xyz
  1  'x, y, z'
loop_
 _atom_site_type_symbol
 _atom_site_label
 _atom_site_symmetry_multiplicity
 _atom_site_fract_x
 _atom_site_fract_y
 _atom_site_fract_z
 _atom_site_occupancy
  C  C0  1  0.11784291  0.10273662  0.62648390  1
  C  C1  1  0.88215709  0.60273662  0.37351610  1
  C  C2  1  0.61784291  0.60273662  0.87351610  1
  C  C3  1  0.38215709  0.10273662  0.12648390  1
  O  O4  1  0.26657323  0.02608847  0.52622896  1
  O  O5  1  0.73342677  0.52608847  0.47377104  1
  O  O6  1  0.76657323  0.52608847  0.97377104  1
  O  O7  1  0.23342677  0.02608847  0.02622896  1
  O  O8  1  0.96910216  0.17917391  0.72677404  1
  O  O9  1  0.03089784  0.67917391  0.27322596  1
  O  O10  1  0.46910216  0.67917391  0.77322596  1
  O  O11  1  0.53089784  0.17917391  0.22677404  1
