# generated using pymatgen
data_MnFe2O3
_symmetry_space_group_name_H-M   'P 1'
_cell_length_a   6.85943924
_cell_length_b   6.85943924
_cell_length_c   4.31065186
_cell_angle_alpha   90.00000000
_cell_angle_beta   90.00000000
_cell_angle_gamma   143.52327907
_symmetry_Int_Tables_number   1
_chemical_formula_structural   MnFe2O3
_chemical_formula_sum   'Mn2 Fe4 O6'
_cell_volume   120.57831521
_cell_formula_units_Z   2
loop_
 _symmetry_equiv_pos_site_id
 _symmetry_equiv_pos_as_xyz
  1  'x, y, z'
loop_
 _atom_site_type_symbol
 _atom_site_label
 _atom_site_symmetry_multiplicity
 _atom_site_fract_x
 _atom_site_fract_y
 _atom_site_fract_z
 _atom_site_occupancy
  Mn  Mn0  1  0.66470975  0.33529025  -0.00000000  1
  Mn  Mn1  1  0.33529025  0.66470975  0.00000000  1
  Fe  Fe2  1  0.16600652  0.83399348  0.50000000  1
  Fe  Fe3  1  0.83399348  0.16600652  0.50000000  1
  Fe  Fe4  1  0.00000000  -0.00000000  -0.00000000  1
  Fe  Fe5  1  0.50000000  0.50000000  0.50000000  1
  O  O6  1  0.66888235  0.33111765  0.50000000  1
  O  O7  1  0.16461487  0.83538513  0.00000000  1
  O  O8  1  0.33111765  0.66888235  0.50000000  1
  O  O9  1  0.83538513  0.16461487  -0.00000000  1
  O  O10  1  0.50000000  0.50000000  -0.00000000  1
  O  O11  1  0.00000000  -0.00000000  0.50000000  1
