# generated using pymatgen
data_NaTiS2
_symmetry_space_group_name_H-M   'P 1'
_cell_length_a   6.89453011
_cell_length_b   6.89452959
_cell_length_c   6.89453118
_cell_angle_alpha   30.14919253
_cell_angle_beta   30.14919856
_cell_angle_gamma   30.14919638
_symmetry_Int_Tables_number   1
_chemical_formula_structural   NaTiS2
_chemical_formula_sum   'Na1 Ti1 S2'
_cell_volume   73.24583388
_cell_formula_units_Z   1
loop_
 _symmetry_equiv_pos_site_id
 _symmetry_equiv_pos_as_xyz
  1  'x, y, z'
loop_
 _atom_site_type_symbol
 _atom_site_label
 _atom_site_symmetry_multiplicity
 _atom_site_fract_x
 _atom_site_fract_y
 _atom_site_fract_z
 _atom_site_occupancy
  Na  Na0  1  0.50000000  0.50000000  0.50000000  1
  Ti  Ti1  1  0.00000000  -0.00000000  -0.00000000  1
  S  S2  1  0.73757606  0.73757606  0.73757606  1
  S  S3  1  0.26242394  0.26242394  0.26242394  1
