# generated using pymatgen
data_KCeS2
_symmetry_space_group_name_H-M   'P 1'
_cell_length_a   7.72253338
_cell_length_b   7.72253338
_cell_length_c   7.72253298
_cell_angle_alpha   31.83486512
_cell_angle_beta   31.83486512
_cell_angle_gamma   31.83486108
_symmetry_Int_Tables_number   1
_chemical_formula_structural   KCeS2
_chemical_formula_sum   'K1 Ce1 S2'
_cell_volume   113.82073074
_cell_formula_units_Z   1
loop_
 _symmetry_equiv_pos_site_id
 _symmetry_equiv_pos_as_xyz
  1  'x, y, z'
loop_
 _atom_site_type_symbol
 _atom_site_label
 _atom_site_symmetry_multiplicity
 _atom_site_fract_x
 _atom_site_fract_y
 _atom_site_fract_z
 _atom_site_occupancy
  K  K0  1  0.50000000  0.50000000  0.50000000  1
  Ce  Ce1  1  -0.00000000  -0.00000000  0.00000000  1
  S  S2  1  0.73611808  0.73611808  0.73611808  1
  S  S3  1  0.26388192  0.26388192  0.26388192  1
