# generated using pymatgen
data_Ti5Te4
_symmetry_space_group_name_H-M   'P 1'
_cell_length_a   3.75797452
_cell_length_b   7.45175910
_cell_length_c   7.45175888
_cell_angle_alpha   86.35459082
_cell_angle_beta   75.39501865
_cell_angle_gamma   75.39500727
_symmetry_Int_Tables_number   1
_chemical_formula_structural   Ti5Te4
_chemical_formula_sum   'Ti5 Te4'
_cell_volume   195.40759910
_cell_formula_units_Z   1
loop_
 _symmetry_equiv_pos_site_id
 _symmetry_equiv_pos_as_xyz
  1  'x, y, z'
loop_
 _atom_site_type_symbol
 _atom_site_label
 _atom_site_symmetry_multiplicity
 _atom_site_fract_x
 _atom_site_fract_y
 _atom_site_fract_z
 _atom_site_occupancy
  Ti  Ti0  1  0.00000000  -0.00000000  0.00000000  1
  Ti  Ti1  1  0.31386779  0.06516694  0.30709849  1
  Ti  Ti2  1  0.62096627  0.69290151  0.06516694  1
  Ti  Ti3  1  0.37903373  0.30709849  0.93483306  1
  Ti  Ti4  1  0.68613221  0.93483306  0.69290151  1
  Te  Te5  1  0.06007710  0.21776415  0.66207965  1
  Te  Te6  1  0.72215775  0.33792035  0.21776415  1
  Te  Te7  1  0.27784225  0.66207965  0.78223585  1
  Te  Te8  1  0.93992290  0.78223585  0.33792035  1
