# generated using pymatgen
data_Na3FeO4
_symmetry_space_group_name_H-M   'P 1'
_cell_length_a   5.14647548
_cell_length_b   10.69152011
_cell_length_c   6.32356893
_cell_angle_alpha   89.99996555
_cell_angle_beta   90.00003145
_cell_angle_gamma   82.83698818
_symmetry_Int_Tables_number   1
_chemical_formula_structural   Na3FeO4
_chemical_formula_sum   'Na12 Fe4 O16'
_cell_volume   345.23024258
_cell_formula_units_Z   4
loop_
 _symmetry_equiv_pos_site_id
 _symmetry_equiv_pos_as_xyz
  1  'x, y, z'
loop_
 _atom_site_type_symbol
 _atom_site_label
 _atom_site_symmetry_multiplicity
 _atom_site_fract_x
 _atom_site_fract_y
 _atom_site_fract_z
 _atom_site_occupancy
  Na  Na0  1  0.75000045  -0.00000042  0.38096370  1
  Na  Na1  1  0.24999965  0.50000012  0.38095503  1
  Na  Na2  1  0.24999982  -0.00000029  0.61904637  1
  Na  Na3  1  0.74999965  0.49999997  0.61903549  1
  Na  Na4  1  0.49999245  0.25000303  0.11510545  1
  Na  Na5  1  0.00000768  0.74999715  0.11510640  1
  Na  Na6  1  -0.00000575  0.25000139  0.88489261  1
  Na  Na7  1  0.50000680  0.74999779  0.88489446  1
  Na  Na8  1  0.50000027  0.24999864  0.62545281  1
  Na  Na9  1  0.00000007  0.75000161  0.62545430  1
  Na  Na10  1  0.00000173  0.24999971  0.37454441  1
  Na  Na11  1  0.49999936  0.74999960  0.37454594  1
  Fe  Fe12  1  0.24999878  0.50000044  0.87263496  1
  Fe  Fe13  1  0.24999955  0.00000043  0.12736547  1
  Fe  Fe14  1  0.74999896  0.00000057  0.87264442  1
  Fe  Fe15  1  0.74999951  0.50000024  0.12735597  1
  O  O16  1  0.84192317  0.10787982  0.67885913  1
  O  O17  1  0.34192526  0.60788078  0.67884972  1
  O  O18  1  0.34192707  0.10787982  0.32115039  1
  O  O19  1  0.84192499  0.60787972  0.32114172  1
  O  O20  1  0.15807514  0.39211910  0.67885083  1
  O  O21  1  0.65807660  0.89211865  0.67886066  1
  O  O22  1  0.65807631  0.39211946  0.32114003  1
  O  O23  1  0.15807554  0.89211804  0.32114912  1
  O  O24  1  0.41321793  0.09381711  0.90264784  1
  O  O25  1  0.91321802  0.59381759  0.90263732  1
  O  O26  1  0.91321873  0.09381836  0.09736221  1
  O  O27  1  0.41321781  0.59381672  0.09735453  1
  O  O28  1  0.08678233  0.40618350  0.09735212  1
  O  O29  1  0.58678236  0.90618198  0.09736149  1
  O  O30  1  0.58678162  0.40618397  0.90263760  1
  O  O31  1  0.08678214  0.90618338  0.90264851  1
