# generated using pymatgen
data_SmCuO3
_symmetry_space_group_name_H-M   'P 1'
_cell_length_a   5.28006365
_cell_length_b   6.29098458
_cell_length_c   7.09825327
_cell_angle_alpha   90.00000000
_cell_angle_beta   90.00000000
_cell_angle_gamma   90.00000000
_symmetry_Int_Tables_number   1
_chemical_formula_structural   SmCuO3
_chemical_formula_sum   'Sm4 Cu4 O12'
_cell_volume   235.78125215
_cell_formula_units_Z   4
loop_
 _symmetry_equiv_pos_site_id
 _symmetry_equiv_pos_as_xyz
  1  'x, y, z'
loop_
 _atom_site_type_symbol
 _atom_site_label
 _atom_site_symmetry_multiplicity
 _atom_site_fract_x
 _atom_site_fract_y
 _atom_site_fract_z
 _atom_site_occupancy
  Sm  Sm0  1  0.97420856  0.10196952  0.25000000  1
  Sm  Sm1  1  0.47420856  0.39803048  0.75000000  1
  Sm  Sm2  1  0.52579144  0.60196952  0.25000000  1
  Sm  Sm3  1  0.02579144  0.89803048  0.75000000  1
  Cu  Cu4  1  0.50000000  0.00000000  0.00000000  1
  Cu  Cu5  1  0.50000000  0.00000000  0.50000000  1
  Cu  Cu6  1  -0.00000000  0.50000000  0.00000000  1
  Cu  Cu7  1  -0.00000000  0.50000000  0.50000000  1
  O  O8  1  0.60778140  0.03430199  0.75000000  1
  O  O9  1  0.21354764  0.15870916  0.54625903  1
  O  O10  1  0.21354764  0.15870916  0.95374097  1
  O  O11  1  0.71354764  0.34129084  0.45374097  1
  O  O12  1  0.71354764  0.34129084  0.04625903  1
  O  O13  1  0.10778140  0.46569801  0.25000000  1
  O  O14  1  0.89221860  0.53430199  0.75000000  1
  O  O15  1  0.28645236  0.65870916  0.95374097  1
  O  O16  1  0.28645236  0.65870916  0.54625903  1
  O  O17  1  0.78645236  0.84129084  0.04625903  1
  O  O18  1  0.78645236  0.84129084  0.45374097  1
  O  O19  1  0.39221860  0.96569801  0.25000000  1
