# generated using pymatgen
data_Na2SbAu
_symmetry_space_group_name_H-M   'P 1'
_cell_length_a   5.90723178
_cell_length_b   5.96256951
_cell_length_c   5.96256928
_cell_angle_alpha   101.79418643
_cell_angle_beta   90.00000000
_cell_angle_gamma   90.00000000
_symmetry_Int_Tables_number   1
_chemical_formula_structural   Na2SbAu
_chemical_formula_sum   'Na4 Sb2 Au2'
_cell_volume   205.58147080
_cell_formula_units_Z   2
loop_
 _symmetry_equiv_pos_site_id
 _symmetry_equiv_pos_as_xyz
  1  'x, y, z'
loop_
 _atom_site_type_symbol
 _atom_site_label
 _atom_site_symmetry_multiplicity
 _atom_site_fract_x
 _atom_site_fract_y
 _atom_site_fract_z
 _atom_site_occupancy
  Na  Na0  1  0.25000000  0.65680051  0.01307232  1
  Na  Na1  1  0.75000000  0.34319949  0.98692768  1
  Na  Na2  1  0.25000000  0.01307232  0.65680051  1
  Na  Na3  1  0.75000000  0.98692768  0.34319949  1
  Sb  Sb4  1  0.75000000  0.79637355  0.79637355  1
  Sb  Sb5  1  0.25000000  0.20362645  0.20362645  1
  Au  Au6  1  0.50000000  0.50000000  0.50000000  1
  Au  Au7  1  -0.00000000  0.50000000  0.50000000  1
