# generated using pymatgen
data_KNaReH9
_symmetry_space_group_name_H-M   'P 1'
_cell_length_a   5.39543109
_cell_length_b   9.12972641
_cell_length_c   10.04100825
_cell_angle_alpha   90.00000000
_cell_angle_beta   90.00000000
_cell_angle_gamma   90.00000000
_symmetry_Int_Tables_number   1
_chemical_formula_structural   KNaReH9
_chemical_formula_sum   'K4 Na4 Re4 H36'
_cell_volume   494.60811474
_cell_formula_units_Z   4
loop_
 _symmetry_equiv_pos_site_id
 _symmetry_equiv_pos_as_xyz
  1  'x, y, z'
loop_
 _atom_site_type_symbol
 _atom_site_label
 _atom_site_symmetry_multiplicity
 _atom_site_fract_x
 _atom_site_fract_y
 _atom_site_fract_z
 _atom_site_occupancy
  K  K0  1  0.25000000  0.52839684  0.82483795  1
  K  K1  1  0.25000000  0.02839684  0.67516205  1
  K  K2  1  0.75000000  0.47160316  0.17516205  1
  K  K3  1  0.75000000  0.97160316  0.32483795  1
  Na  Na4  1  0.25000000  0.63539601  0.42434767  1
  Na  Na5  1  0.25000000  0.13539601  0.07565233  1
  Na  Na6  1  0.75000000  0.36460399  0.57565233  1
  Na  Na7  1  0.75000000  0.86460399  0.92434767  1
  Re  Re8  1  0.25000000  0.77024849  0.11619169  1
  Re  Re9  1  0.25000000  0.27024849  0.38380831  1
  Re  Re10  1  0.75000000  0.22975151  0.88380831  1
  Re  Re11  1  0.75000000  0.72975151  0.61619169  1
  H  H12  1  0.03076020  0.90344464  0.10275344  1
  H  H13  1  0.46923980  0.40344464  0.39724656  1
  H  H14  1  0.53076020  0.09655536  0.89724656  1
  H  H15  1  0.96923980  0.59655536  0.60275344  1
  H  H16  1  0.96923980  0.09655536  0.89724656  1
  H  H17  1  0.53076020  0.59655536  0.60275344  1
  H  H18  1  0.46923980  0.90344464  0.10275344  1
  H  H19  1  0.03076020  0.40344464  0.39724656  1
  H  H20  1  0.02810859  0.71976044  0.22656177  1
  H  H21  1  0.47189141  0.21976044  0.27343823  1
  H  H22  1  0.52810859  0.28023956  0.77343823  1
  H  H23  1  0.97189141  0.78023956  0.72656177  1
  H  H24  1  0.97189141  0.28023956  0.77343823  1
  H  H25  1  0.52810859  0.78023956  0.72656177  1
  H  H26  1  0.47189141  0.71976044  0.22656177  1
  H  H27  1  0.02810859  0.21976044  0.27343823  1
  H  H28  1  0.02145691  0.68956782  0.02579105  1
  H  H29  1  0.47854309  0.18956782  0.47420895  1
  H  H30  1  0.52145691  0.31043218  0.97420895  1
  H  H31  1  0.97854309  0.81043218  0.52579105  1
  H  H32  1  0.97854309  0.31043218  0.97420895  1
  H  H33  1  0.52145691  0.81043218  0.52579105  1
  H  H34  1  0.47854309  0.68956782  0.02579105  1
  H  H35  1  0.02145691  0.18956782  0.47420895  1
  H  H36  1  0.25000000  0.87773974  0.24983386  1
  H  H37  1  0.25000000  0.37773974  0.25016614  1
  H  H38  1  0.75000000  0.12226026  0.75016614  1
  H  H39  1  0.75000000  0.62226026  0.74983386  1
  H  H40  1  0.25000000  0.83575599  0.95974654  1
  H  H41  1  0.25000000  0.33575599  0.54025346  1
  H  H42  1  0.75000000  0.16424401  0.04025346  1
  H  H43  1  0.75000000  0.66424401  0.45974654  1
  H  H44  1  0.25000000  0.58857273  0.13519753  1
  H  H45  1  0.25000000  0.08857273  0.36480247  1
  H  H46  1  0.75000000  0.41142727  0.86480247  1
  H  H47  1  0.75000000  0.91142727  0.63519753  1
