# generated using pymatgen
data_Ca(AgGe)2
_symmetry_space_group_name_H-M   'P 1'
_cell_length_a   4.32077717
_cell_length_b   4.32077754
_cell_length_c   6.25357049
_cell_angle_alpha   110.21015399
_cell_angle_beta   110.21016665
_cell_angle_gamma   90.00001726
_symmetry_Int_Tables_number   1
_chemical_formula_structural   Ca(AgGe)2
_chemical_formula_sum   'Ca1 Ag2 Ge2'
_cell_volume   101.86667126
_cell_formula_units_Z   1
loop_
 _symmetry_equiv_pos_site_id
 _symmetry_equiv_pos_as_xyz
  1  'x, y, z'
loop_
 _atom_site_type_symbol
 _atom_site_label
 _atom_site_symmetry_multiplicity
 _atom_site_fract_x
 _atom_site_fract_y
 _atom_site_fract_z
 _atom_site_occupancy
  Ca  Ca0  1  -0.00000000  -0.00000000  0.00000000  1
  Ag  Ag1  1  0.75000000  0.25000000  0.50000000  1
  Ag  Ag2  1  0.25000000  0.75000000  0.50000000  1
  Ge  Ge3  1  0.39030713  0.39030713  0.78061526  1
  Ge  Ge4  1  0.60969287  0.60969287  0.21938474  1
