# generated using pymatgen
data_Sm2SnS5
_symmetry_space_group_name_H-M   'P 1'
_cell_length_a   3.86683387
_cell_length_b   7.83756233
_cell_length_c   11.42145952
_cell_angle_alpha   90.00000000
_cell_angle_beta   90.00000000
_cell_angle_gamma   90.00000000
_symmetry_Int_Tables_number   1
_chemical_formula_structural   Sm2SnS5
_chemical_formula_sum   'Sm4 Sn2 S10'
_cell_volume   346.14505087
_cell_formula_units_Z   2
loop_
 _symmetry_equiv_pos_site_id
 _symmetry_equiv_pos_as_xyz
  1  'x, y, z'
loop_
 _atom_site_type_symbol
 _atom_site_label
 _atom_site_symmetry_multiplicity
 _atom_site_fract_x
 _atom_site_fract_y
 _atom_site_fract_z
 _atom_site_occupancy
  Sm  Sm0  1  0.50000000  0.53494761  0.17299887  1
  Sm  Sm1  1  0.50000000  0.46505239  0.82700113  1
  Sm  Sm2  1  0.50000000  0.03494761  0.32700113  1
  Sm  Sm3  1  0.50000000  0.96505239  0.67299887  1
  Sn  Sn4  1  0.00000000  0.50000000  0.50000000  1
  Sn  Sn5  1  -0.00000000  -0.00000000  0.00000000  1
  S  S6  1  0.50000000  0.67054713  0.40857722  1
  S  S7  1  0.50000000  0.32945287  0.59142278  1
  S  S8  1  0.50000000  0.17054713  0.09142278  1
  S  S9  1  0.50000000  0.82945287  0.90857722  1
  S  S10  1  0.00000000  0.82875443  0.19401759  1
  S  S11  1  0.00000000  0.17124457  0.80598241  1
  S  S12  1  0.00000000  0.50000000  0.00000000  1
  S  S13  1  0.00000000  -0.00000000  0.50000000  1
  S  S14  1  0.00000000  0.67124557  0.69401759  1
  S  S15  1  0.00000000  0.32875443  0.30598241  1
