# generated using pymatgen
data_NaMn3O4
_symmetry_space_group_name_H-M   'P 1'
_cell_length_a   5.32664951
_cell_length_b   5.32659876
_cell_length_c   6.31916378
_cell_angle_alpha   92.36016299
_cell_angle_beta   92.35987494
_cell_angle_gamma   107.24067992
_symmetry_Int_Tables_number   1
_chemical_formula_structural   NaMn3O4
_chemical_formula_sum   'Na2 Mn6 O8'
_cell_volume   170.82401852
_cell_formula_units_Z   2
loop_
 _symmetry_equiv_pos_site_id
 _symmetry_equiv_pos_as_xyz
  1  'x, y, z'
loop_
 _atom_site_type_symbol
 _atom_site_label
 _atom_site_symmetry_multiplicity
 _atom_site_fract_x
 _atom_site_fract_y
 _atom_site_fract_z
 _atom_site_occupancy
  Na  Na0  1  0.00011955  0.00003785  0.49992588  1
  Na  Na1  1  0.00011974  0.00003204  0.99992411  1
  Mn  Mn2  1  0.50016118  0.50007211  0.49990876  1
  Mn  Mn3  1  0.00204374  0.49904222  0.75266664  1
  Mn  Mn4  1  0.99817261  0.50102729  0.24728395  1
  Mn  Mn5  1  0.50016223  0.50005825  0.99991070  1
  Mn  Mn6  1  0.49911432  0.00194842  0.25264809  1
  Mn  Mn7  1  0.50113588  0.99809572  0.74726455  1
  O  O8  1  0.72857262  0.27067590  0.99892477  1
  O  O9  1  0.72963511  0.27174704  0.50079555  1
  O  O10  1  0.27183046  0.72953675  0.00080031  1
  O  O11  1  0.27076470  0.72848889  0.49892330  1
  O  O12  1  0.27536332  0.27478428  0.77624614  1
  O  O13  1  0.27486897  0.27527141  0.27625042  1
  O  O14  1  0.72547845  0.72491100  0.72350390  1
  O  O15  1  0.72499411  0.72538784  0.22350893  1
