# generated using pymatgen
data_Tm2TeO2
_symmetry_space_group_name_H-M   'P 1'
_cell_length_a   3.83107652
_cell_length_b   3.83110073
_cell_length_c   7.08639758
_cell_angle_alpha   90.00006170
_cell_angle_beta   90.00000000
_cell_angle_gamma   119.99980870
_symmetry_Int_Tables_number   1
_chemical_formula_structural   Tm2TeO2
_chemical_formula_sum   'Tm2 Te1 O2'
_cell_volume   90.07440069
_cell_formula_units_Z   1
loop_
 _symmetry_equiv_pos_site_id
 _symmetry_equiv_pos_as_xyz
  1  'x, y, z'
loop_
 _atom_site_type_symbol
 _atom_site_label
 _atom_site_symmetry_multiplicity
 _atom_site_fract_x
 _atom_site_fract_y
 _atom_site_fract_z
 _atom_site_occupancy
  Tm  Tm0  1  0.33329346  0.66666432  0.30688514  1
  Tm  Tm1  1  0.66662914  0.33333568  0.69311486  1
  Te  Te2  1  -0.00001409  0.00000000  -0.00000000  1
  O  O3  1  0.33327955  0.66666561  0.61869916  1
  O  O4  1  0.66661294  0.33333439  0.38130084  1
