# generated using pymatgen
data_Na2IrO3
_symmetry_space_group_name_H-M   'P 1'
_cell_length_a   5.46958944
_cell_length_b   5.46958857
_cell_length_c   5.53310646
_cell_angle_alpha   99.69941102
_cell_angle_beta   99.69940947
_cell_angle_gamma   119.91468364
_symmetry_Int_Tables_number   1
_chemical_formula_structural   Na2IrO3
_chemical_formula_sum   'Na4 Ir2 O6'
_cell_volume   135.10849658
_cell_formula_units_Z   2
loop_
 _symmetry_equiv_pos_site_id
 _symmetry_equiv_pos_as_xyz
  1  'x, y, z'
loop_
 _atom_site_type_symbol
 _atom_site_label
 _atom_site_symmetry_multiplicity
 _atom_site_fract_x
 _atom_site_fract_y
 _atom_site_fract_z
 _atom_site_occupancy
  Na  Na0  1  -0.00000000  0.00000000  0.00000000  1
  Na  Na1  1  0.50000000  0.50000000  0.50000000  1
  Na  Na2  1  0.15953565  0.84046535  0.50000000  1
  Na  Na3  1  0.84046435  0.15953465  0.50000000  1
  Ir  Ir4  1  0.33305985  0.66694015  0.00000000  1
  Ir  Ir5  1  0.66694015  0.33305985  -0.00000000  1
  O  O6  1  0.56097415  0.92960112  0.79283239  1
  O  O7  1  0.92960112  0.56097415  0.79283339  1
  O  O8  1  0.43902585  0.07039888  0.20716761  1
  O  O9  1  0.07039888  0.43902585  0.20716661  1
  O  O10  1  0.70404881  0.70404881  0.20899379  1
  O  O11  1  0.29595119  0.29595119  0.79100621  1
