# generated using pymatgen
data_Na3Mn2P2(CO7)2
_symmetry_space_group_name_H-M   'P 1'
_cell_length_a   6.58601500
_cell_length_b   8.97367700
_cell_length_c   10.38944162
_cell_angle_alpha   88.49255728
_cell_angle_beta   90.00000000
_cell_angle_gamma   90.00000000
_symmetry_Int_Tables_number   1
_chemical_formula_structural   Na3Mn2P2(CO7)2
_chemical_formula_sum   'Na6 Mn4 P4 C4 O28'
_cell_volume   613.81150949
_cell_formula_units_Z   2
loop_
 _symmetry_equiv_pos_site_id
 _symmetry_equiv_pos_as_xyz
  1  'x, y, z'
loop_
 _atom_site_type_symbol
 _atom_site_label
 _atom_site_symmetry_multiplicity
 _atom_site_fract_x
 _atom_site_fract_y
 _atom_site_fract_z
 _atom_site_occupancy
  Na  Na0  1  0.77570200  0.24365500  0.62315200  1
  Na  Na1  1  0.22429800  0.24365500  0.12315200  1
  Na  Na2  1  0.74083700  0.76081400  0.87659900  1
  Na  Na3  1  0.25956000  0.76001700  0.87915900  1
  Na  Na4  1  0.74044000  0.76001700  0.37915900  1
  Na  Na5  1  0.25916300  0.76081400  0.37659900  1
  Mn  Mn6  1  0.50259900  0.34400500  0.89384500  1
  Mn  Mn7  1  0.49740100  0.34400500  0.39384500  1
  Mn  Mn8  1  0.00270500  0.64979800  0.60893500  1
  Mn  Mn9  1  0.99729500  0.64979800  0.10893500  1
  P  P10  1  0.00031800  0.42400300  0.85626900  1
  P  P11  1  0.99968200  0.42400300  0.35626900  1
  P  P12  1  0.50243900  0.57190700  0.64271700  1
  P  P13  1  0.49756100  0.57190700  0.14271700  1
  C  C14  1  0.49821800  0.07579600  0.86538200  1
  C  C15  1  0.50178200  0.07579600  0.36538200  1
  C  C16  1  0.00289600  0.92274400  0.63427200  1
  C  C17  1  0.99710400  0.92274400  0.13427200  1
  O  O18  1  0.00115600  0.05842200  0.64527500  1
  O  O19  1  0.99884400  0.05842200  0.14527500  1
  O  O20  1  0.48889200  0.13981900  0.97721400  1
  O  O21  1  0.51110800  0.13981900  0.47721400  1
  O  O22  1  0.50754300  0.17430500  0.76984300  1
  O  O23  1  0.49245700  0.17430500  0.26984300  1
  O  O24  1  0.18787400  0.33082500  0.89533100  1
  O  O25  1  0.81222000  0.32761300  0.88595300  1
  O  O26  1  0.18778000  0.32761300  0.38595300  1
  O  O27  1  0.81212600  0.33082500  0.39533100  1
  O  O28  1  0.00043200  0.46488000  0.70865600  1
  O  O29  1  0.50905600  0.42455000  0.57048400  1
  O  O30  1  0.99956800  0.46488000  0.20865600  1
  O  O31  1  0.49094400  0.42455000  0.07048400  1
  O  O32  1  0.99735700  0.57509300  0.92781200  1
  O  O33  1  0.50132500  0.53723400  0.79192000  1
  O  O34  1  0.00264300  0.57509300  0.42781200  1
  O  O35  1  0.49867500  0.53723400  0.29192000  1
  O  O36  1  0.68830700  0.67198800  0.60921500  1
  O  O37  1  0.31547800  0.66869200  0.60653500  1
  O  O38  1  0.68452200  0.66869200  0.10653500  1
  O  O39  1  0.31169300  0.67198800  0.10921500  1
  O  O40  1  0.00414700  0.82403600  0.73217000  1
  O  O41  1  0.99585300  0.82403600  0.23217000  1
  O  O42  1  0.00276000  0.85269600  0.52327200  1
  O  O43  1  0.99724000  0.85269600  0.02327200  1
  O  O44  1  0.49928200  0.93796700  0.85169800  1
  O  O45  1  0.50071800  0.93796700  0.35169800  1
