# generated using pymatgen
data_Y(BO2)3
_symmetry_space_group_name_H-M   'P 1'
_cell_length_a   6.27302609
_cell_length_b   6.27302609
_cell_length_c   6.14088464
_cell_angle_alpha   63.06247359
_cell_angle_beta   63.06247359
_cell_angle_gamma   79.77165736
_symmetry_Int_Tables_number   1
_chemical_formula_structural   Y(BO2)3
_chemical_formula_sum   'Y2 B6 O12'
_cell_volume   191.94011291
_cell_formula_units_Z   2
loop_
 _symmetry_equiv_pos_site_id
 _symmetry_equiv_pos_as_xyz
  1  'x, y, z'
loop_
 _atom_site_type_symbol
 _atom_site_label
 _atom_site_symmetry_multiplicity
 _atom_site_fract_x
 _atom_site_fract_y
 _atom_site_fract_z
 _atom_site_occupancy
  Y  Y0  1  0.70811504  0.29188496  0.25000000  1
  Y  Y1  1  0.29188496  0.70811504  0.75000000  1
  B  B2  1  0.27679651  0.72320349  0.25000000  1
  B  B3  1  0.16458655  0.29078806  0.40567224  1
  B  B4  1  0.29078806  0.16458655  0.90567224  1
  B  B5  1  0.70921194  0.83541345  0.09432776  1
  B  B6  1  0.83541345  0.70921194  0.59432776  1
  B  B7  1  0.72320349  0.27679651  0.75000000  1
  O  O8  1  0.08187740  0.71699738  0.49797753  1
  O  O9  1  0.48914831  0.71709885  0.29768527  1
  O  O10  1  0.29979357  0.11167866  0.48661076  1
  O  O11  1  0.11167866  0.29979357  0.98661076  1
  O  O12  1  0.28290115  0.51085169  0.20231473  1
  O  O13  1  0.28300262  0.91812260  0.00202247  1
  O  O14  1  0.71699738  0.08187740  0.99797753  1
  O  O15  1  0.71709885  0.48914831  0.79768527  1
  O  O16  1  0.88832134  0.70020643  0.01338924  1
  O  O17  1  0.70020643  0.88832134  0.51338924  1
  O  O18  1  0.51085169  0.28290115  0.70231473  1
  O  O19  1  0.91812260  0.28300262  0.50202247  1
