# generated using pymatgen
data_Mn2AlB2
_symmetry_space_group_name_H-M   'P 1'
_cell_length_a   2.81296046
_cell_length_b   2.87129265
_cell_length_c   5.69742411
_cell_angle_alpha   104.59483050
_cell_angle_beta   90.00000000
_cell_angle_gamma   90.00000000
_symmetry_Int_Tables_number   1
_chemical_formula_structural   Mn2AlB2
_chemical_formula_sum   'Mn2 Al1 B2'
_cell_volume   44.53225601
_cell_formula_units_Z   1
loop_
 _symmetry_equiv_pos_site_id
 _symmetry_equiv_pos_as_xyz
  1  'x, y, z'
loop_
 _atom_site_type_symbol
 _atom_site_label
 _atom_site_symmetry_multiplicity
 _atom_site_fract_x
 _atom_site_fract_y
 _atom_site_fract_z
 _atom_site_occupancy
  Mn  Mn0  1  0.50000000  0.35392333  0.70784665  1
  Mn  Mn1  1  0.50000000  0.64607667  0.29215335  1
  Al  Al2  1  0.00000000  -0.00000000  -0.00000000  1
  B  B3  1  0.00000000  0.79473498  0.58947096  1
  B  B4  1  0.00000000  0.20526502  0.41052904  1
