# generated using pymatgen
data_VOF2
_symmetry_space_group_name_H-M   'P 1'
_cell_length_a   5.14975474
_cell_length_b   5.26129948
_cell_length_c   12.49978796
_cell_angle_alpha   92.04401268
_cell_angle_beta   90.55997911
_cell_angle_gamma   119.10462333
_symmetry_Int_Tables_number   1
_chemical_formula_structural   VOF2
_chemical_formula_sum   'V6 O6 F12'
_cell_volume   295.57991288
_cell_formula_units_Z   6
loop_
 _symmetry_equiv_pos_site_id
 _symmetry_equiv_pos_as_xyz
  1  'x, y, z'
loop_
 _atom_site_type_symbol
 _atom_site_label
 _atom_site_symmetry_multiplicity
 _atom_site_fract_x
 _atom_site_fract_y
 _atom_site_fract_z
 _atom_site_occupancy
  V  V0  1  0.31781605  0.64250167  0.66364700  1
  V  V1  1  0.33322403  0.69665448  0.17114782  1
  V  V2  1  0.67165235  0.29628300  0.83667028  1
  V  V3  1  0.68550454  0.36007408  0.33721246  1
  V  V4  1  0.00160117  0.00101790  0.50002047  1
  V  V5  1  0.00830351  0.03308883  0.00496212  1
  O  O6  1  0.22911696  0.30989253  0.08589669  1
  O  O7  1  0.10460915  0.34577168  0.58568629  1
  O  O8  1  0.80496154  0.18860518  0.94391179  1
  O  O9  1  0.58108145  0.01898004  0.75039182  1
  O  O10  1  0.89991016  0.65831345  0.41424720  1
  O  O11  1  0.41859439  0.99374160  0.24525698  1
  F  F12  1  0.72391751  0.82996439  0.11304028  1
  F  F13  1  0.43153562  0.50629925  0.28324092  1
  F  F14  1  0.60871507  0.82285386  0.55190403  1
  F  F15  1  0.87733287  0.13821762  0.38056078  1
  F  F16  1  0.07136050  0.53417755  0.78802403  1
  F  F17  1  0.20614386  0.80047899  0.04264996  1
  F  F18  1  0.92004832  0.47554163  0.21012073  1
  F  F19  1  0.12448031  0.86325026  0.61813485  1
  F  F20  1  0.75196443  0.66223750  0.91700454  1
  F  F21  1  0.39568672  0.17607438  0.44817671  1
  F  F22  1  0.56132817  0.49949470  0.72433890  1
  F  F23  1  0.27111030  0.14648542  0.88375435  1
