# generated using pymatgen
data_Na2NiPCO7
_symmetry_space_group_name_H-M   'P 1'
_cell_length_a   6.51687200
_cell_length_b   9.01195400
_cell_length_c   10.36609694
_cell_angle_alpha   88.54703455
_cell_angle_beta   90.00000000
_cell_angle_gamma   90.00000000
_symmetry_Int_Tables_number   1
_chemical_formula_structural   Na2NiPCO7
_chemical_formula_sum   'Na8 Ni4 P4 C4 O28'
_cell_volume   608.60254616
_cell_formula_units_Z   4
loop_
 _symmetry_equiv_pos_site_id
 _symmetry_equiv_pos_as_xyz
  1  'x, y, z'
loop_
 _atom_site_type_symbol
 _atom_site_label
 _atom_site_symmetry_multiplicity
 _atom_site_fract_x
 _atom_site_fract_y
 _atom_site_fract_z
 _atom_site_occupancy
  Na  Na0  1  0.26605300  0.73819700  0.87616600  1
  Na  Na1  1  0.73132300  0.73866100  0.87415900  1
  Na  Na2  1  0.26867700  0.73866100  0.37415900  1
  Na  Na3  1  0.73394700  0.73819700  0.37616600  1
  Na  Na4  1  0.76975800  0.26723500  0.62784400  1
  Na  Na5  1  0.23024200  0.26723500  0.12784400  1
  Na  Na6  1  0.99568400  0.09003300  0.89472100  1
  Na  Na7  1  0.00431600  0.09003300  0.39472100  1
  Ni  Ni8  1  0.00264400  0.65161500  0.61092200  1
  Ni  Ni9  1  0.99735600  0.65161500  0.11092200  1
  Ni  Ni10  1  0.49822100  0.34237400  0.88967400  1
  Ni  Ni11  1  0.50177900  0.34237400  0.38967400  1
  P  P12  1  0.49931000  0.57353700  0.64096300  1
  P  P13  1  0.50069000  0.57353700  0.14096300  1
  P  P14  1  0.99835600  0.42289700  0.85615600  1
  P  P15  1  0.00164400  0.42289700  0.35615600  1
  C  C16  1  0.99373200  0.92658200  0.64404000  1
  C  C17  1  0.00626800  0.92658200  0.14404000  1
  C  C18  1  0.49622000  0.07122700  0.85789700  1
  C  C19  1  0.50378000  0.07122700  0.35789700  1
  O  O20  1  0.49820600  0.93279400  0.83995200  1
  O  O21  1  0.50179400  0.93279400  0.33995200  1
  O  O22  1  0.99899500  0.86574100  0.53043500  1
  O  O23  1  0.00100500  0.86574100  0.03043500  1
  O  O24  1  0.00026900  0.83298900  0.74243500  1
  O  O25  1  0.99973100  0.83298900  0.24243500  1
  O  O26  1  0.31210200  0.67179800  0.60350300  1
  O  O27  1  0.68886000  0.67158300  0.60556400  1
  O  O28  1  0.31114000  0.67158300  0.10556400  1
  O  O29  1  0.68789800  0.67179800  0.10350300  1
  O  O30  1  0.99437600  0.57016600  0.92874800  1
  O  O31  1  0.00562400  0.57016600  0.42874800  1
  O  O32  1  0.49712200  0.54084700  0.79025400  1
  O  O33  1  0.50287800  0.54084700  0.29025400  1
  O  O34  1  0.00136700  0.46147700  0.70809400  1
  O  O35  1  0.99863300  0.46147700  0.20809400  1
  O  O36  1  0.50380500  0.42731700  0.56742500  1
  O  O37  1  0.49619500  0.42731700  0.06742500  1
  O  O38  1  0.80888600  0.32166200  0.88094400  1
  O  O39  1  0.18515800  0.32517000  0.89695800  1
  O  O40  1  0.81484200  0.32517000  0.39695800  1
  O  O41  1  0.19111400  0.32166200  0.38094400  1
  O  O42  1  0.50412100  0.17051200  0.76384500  1
  O  O43  1  0.49587900  0.17051200  0.26384500  1
  O  O44  1  0.48759400  0.13034400  0.97077300  1
  O  O45  1  0.51240600  0.13034400  0.47077300  1
  O  O46  1  0.98290700  0.06556600  0.65649400  1
  O  O47  1  0.01709300  0.06556600  0.15649400  1
