# generated using pymatgen
data_Hf5Ge4
_symmetry_space_group_name_H-M   'P 1'
_cell_length_a   7.01370133
_cell_length_b   7.09269166
_cell_length_c   13.38472024
_cell_angle_alpha   90.00000000
_cell_angle_beta   90.00000000
_cell_angle_gamma   90.00000000
_symmetry_Int_Tables_number   1
_chemical_formula_structural   Hf5Ge4
_chemical_formula_sum   'Hf20 Ge16'
_cell_volume   665.83657319
_cell_formula_units_Z   4
loop_
 _symmetry_equiv_pos_site_id
 _symmetry_equiv_pos_as_xyz
  1  'x, y, z'
loop_
 _atom_site_type_symbol
 _atom_site_label
 _atom_site_symmetry_multiplicity
 _atom_site_fract_x
 _atom_site_fract_y
 _atom_site_fract_z
 _atom_site_occupancy
  Hf  Hf0  1  0.01583723  0.32293611  0.09530653  1
  Hf  Hf1  1  0.51583723  0.17706389  0.40469347  1
  Hf  Hf2  1  0.48416277  0.82293611  0.90469347  1
  Hf  Hf3  1  0.98416277  0.67706389  0.59530653  1
  Hf  Hf4  1  0.01583723  0.32293611  0.40469347  1
  Hf  Hf5  1  0.51583723  0.17706389  0.09530653  1
  Hf  Hf6  1  0.48416277  0.82293611  0.59530653  1
  Hf  Hf7  1  0.98416277  0.67706389  0.90469347  1
  Hf  Hf8  1  0.85549009  0.83440439  0.12366015  1
  Hf  Hf9  1  0.35549009  0.66559561  0.37633985  1
  Hf  Hf10  1  0.64450991  0.33440439  0.87633985  1
  Hf  Hf11  1  0.14450991  0.16559561  0.62366015  1
  Hf  Hf12  1  0.14450991  0.16559561  0.87633985  1
  Hf  Hf13  1  0.64450991  0.33440439  0.62366015  1
  Hf  Hf14  1  0.35549009  0.66559561  0.12366015  1
  Hf  Hf15  1  0.85549009  0.83440439  0.37633985  1
  Hf  Hf16  1  0.18263610  0.00258212  0.25000000  1
  Hf  Hf17  1  0.68263610  0.49741788  0.25000000  1
  Hf  Hf18  1  0.31736390  0.50258212  0.75000000  1
  Hf  Hf19  1  0.81736390  0.99741788  0.75000000  1
  Ge  Ge20  1  0.69918164  0.53512376  0.04088479  1
  Ge  Ge21  1  0.19918164  0.96487624  0.45911521  1
  Ge  Ge22  1  0.80081836  0.03512376  0.95911521  1
  Ge  Ge23  1  0.30081836  0.46487624  0.54088479  1
  Ge  Ge24  1  0.30081836  0.46487624  0.95911521  1
  Ge  Ge25  1  0.80081836  0.03512376  0.54088479  1
  Ge  Ge26  1  0.19918164  0.96487624  0.04088479  1
  Ge  Ge27  1  0.69918164  0.53512376  0.45911521  1
  Ge  Ge28  1  0.32160936  0.35390415  0.25000000  1
  Ge  Ge29  1  0.82160936  0.14609585  0.25000000  1
  Ge  Ge30  1  0.17839064  0.85390415  0.75000000  1
  Ge  Ge31  1  0.67839064  0.64609585  0.75000000  1
  Ge  Ge32  1  0.05427048  0.61262923  0.25000000  1
  Ge  Ge33  1  0.55427048  0.88737077  0.25000000  1
  Ge  Ge34  1  0.44572952  0.11262923  0.75000000  1
  Ge  Ge35  1  0.94572952  0.38737077  0.75000000  1
