# generated using pymatgen
data_NaCr4O8
_symmetry_space_group_name_H-M   'P 1'
_cell_length_a   7.12621040
_cell_length_b   7.12621040
_cell_length_c   7.12621040
_cell_angle_alpha   92.51966638
_cell_angle_beta   92.51966638
_cell_angle_gamma   155.79375034
_symmetry_Int_Tables_number   1
_chemical_formula_structural   NaCr4O8
_chemical_formula_sum   'Na1 Cr4 O8'
_cell_volume   145.08454262
_cell_formula_units_Z   1
loop_
 _symmetry_equiv_pos_site_id
 _symmetry_equiv_pos_as_xyz
  1  'x, y, z'
loop_
 _atom_site_type_symbol
 _atom_site_label
 _atom_site_symmetry_multiplicity
 _atom_site_fract_x
 _atom_site_fract_y
 _atom_site_fract_z
 _atom_site_occupancy
  Na  Na0  1  0.50000000  0.50000000  0.00000000  1
  Cr  Cr1  1  0.34787500  0.16548800  0.51336300  1
  Cr  Cr2  1  0.83451200  0.34787500  0.18238700  1
  Cr  Cr3  1  0.16548800  0.65212500  0.81761300  1
  Cr  Cr4  1  0.65212500  0.83451200  0.48663700  1
  O  O5  1  0.84814000  0.80118600  0.64932600  1
  O  O6  1  0.83713200  0.54007200  0.37720400  1
  O  O7  1  0.19881500  0.84814000  0.04695500  1
  O  O8  1  0.54007200  0.16286800  0.70293900  1
  O  O9  1  0.45992800  0.83713200  0.29706100  1
  O  O10  1  0.80118600  0.15186000  0.95304500  1
  O  O11  1  0.16286800  0.45992800  0.62279600  1
  O  O12  1  0.15186000  0.19881500  0.35067400  1
