# generated using pymatgen
data_TbCuAs2
_symmetry_space_group_name_H-M   'P 1'
_cell_length_a   3.88371110
_cell_length_b   3.88371110
_cell_length_c   9.94603484
_cell_angle_alpha   90.00000000
_cell_angle_beta   90.00000000
_cell_angle_gamma   90.00000000
_symmetry_Int_Tables_number   1
_chemical_formula_structural   TbCuAs2
_chemical_formula_sum   'Tb2 Cu2 As4'
_cell_volume   150.01815114
_cell_formula_units_Z   2
loop_
 _symmetry_equiv_pos_site_id
 _symmetry_equiv_pos_as_xyz
  1  'x, y, z'
loop_
 _atom_site_type_symbol
 _atom_site_label
 _atom_site_symmetry_multiplicity
 _atom_site_fract_x
 _atom_site_fract_y
 _atom_site_fract_z
 _atom_site_occupancy
  Tb  Tb0  1  0.75000000  0.75000000  0.76292744  1
  Tb  Tb1  1  0.25000000  0.25000000  0.23707256  1
  Cu  Cu2  1  0.25000000  0.75000000  0.50000000  1
  Cu  Cu3  1  0.75000000  0.25000000  0.50000000  1
  As  As4  1  0.75000000  0.25000000  0.00000000  1
  As  As5  1  0.25000000  0.75000000  0.00000000  1
  As  As6  1  0.75000000  0.75000000  0.34301237  1
  As  As7  1  0.25000000  0.25000000  0.65698763  1
