# generated using pymatgen
data_Na5Fe2P2(CO7)2
_symmetry_space_group_name_H-M   'P 1'
_cell_length_a   18.02590612
_cell_length_b   5.25901147
_cell_length_c   6.59535254
_cell_angle_alpha   90.00000000
_cell_angle_beta   90.00000000
_cell_angle_gamma   89.48971372
_symmetry_Int_Tables_number   1
_chemical_formula_structural   Na5Fe2P2(CO7)2
_chemical_formula_sum   'Na10 Fe4 P4 C4 O28'
_cell_volume   625.20438216
_cell_formula_units_Z   2
loop_
 _symmetry_equiv_pos_site_id
 _symmetry_equiv_pos_as_xyz
  1  'x, y, z'
loop_
 _atom_site_type_symbol
 _atom_site_label
 _atom_site_symmetry_multiplicity
 _atom_site_fract_x
 _atom_site_fract_y
 _atom_site_fract_z
 _atom_site_occupancy
  Na  Na0  1  0.04366732  0.76808303  0.26698670  1
  Na  Na1  1  0.13326533  0.24529172  0.01792175  1
  Na  Na2  1  0.37039838  0.74857995  0.49407926  1
  Na  Na3  1  0.36935272  0.74760387  0.00184320  1
  Na  Na4  1  0.46272407  0.24259350  0.76228961  1
  Na  Na5  1  0.54366732  0.76808303  0.23301330  1
  Na  Na6  1  0.63326533  0.24529172  0.48207825  1
  Na  Na7  1  0.86935272  0.74760387  0.49815680  1
  Na  Na8  1  0.87039838  0.74857995  0.00592074  1
  Na  Na9  1  0.96272407  0.24259350  0.73771039  1
  Fe  Fe10  1  0.17269645  0.78551189  0.73672637  1
  Fe  Fe11  1  0.32336338  0.22226877  0.24763793  1
  Fe  Fe12  1  0.67269645  0.78551189  0.76327363  1
  Fe  Fe13  1  0.82336338  0.22226877  0.25236207  1
  P  P14  1  0.20852311  0.70044221  0.24572078  1
  P  P15  1  0.28904312  0.28717685  0.74838818  1
  P  P16  1  0.70852311  0.70044221  0.25427922  1
  P  P17  1  0.78904312  0.28717685  0.75161182  1
  C  C18  1  0.03226993  0.73224021  0.75716065  1
  C  C19  1  0.46924306  0.27393613  0.25407511  1
  C  C20  1  0.53226993  0.73224021  0.74283935  1
  C  C21  1  0.96924306  0.27393613  0.24592489  1
  O  O22  1  0.03946918  0.29453092  0.23414322  1
  O  O23  1  0.06367970  0.95512129  0.75518659  1
  O  O24  1  0.07670200  0.53646370  0.75839337  1
  O  O25  1  0.15977471  0.78438133  0.05889240  1
  O  O26  1  0.16132983  0.76939033  0.43834461  1
  O  O27  1  0.21739527  0.12787897  0.75636157  1
  O  O28  1  0.22218466  0.41203533  0.23393211  1
  O  O29  1  0.26727638  0.57807390  0.74890735  1
  O  O30  1  0.28308969  0.84250838  0.24912144  1
  O  O31  1  0.33784608  0.22791568  0.56105152  1
  O  O32  1  0.34031372  0.23241032  0.93263004  1
  O  O33  1  0.42608095  0.47643319  0.24670000  1
  O  O34  1  0.43753509  0.04967844  0.24742185  1
  O  O35  1  0.46103389  0.70986811  0.74661584  1
  O  O36  1  0.53946918  0.29453092  0.26585678  1
  O  O37  1  0.56367970  0.95512129  0.74481341  1
  O  O38  1  0.57670200  0.53646370  0.74160663  1
  O  O39  1  0.66132983  0.76939033  0.06165539  1
  O  O40  1  0.65977471  0.78438133  0.44110760  1
  O  O41  1  0.71739527  0.12787897  0.74363843  1
  O  O42  1  0.72218466  0.41203533  0.26606789  1
  O  O43  1  0.76727638  0.57807390  0.75109265  1
  O  O44  1  0.78308969  0.84250838  0.25087856  1
  O  O45  1  0.84031372  0.23241032  0.56736996  1
  O  O46  1  0.83784608  0.22791568  0.93894848  1
  O  O47  1  0.92608095  0.47643319  0.25330000  1
  O  O48  1  0.93753509  0.04967844  0.25257815  1
  O  O49  1  0.96103389  0.70986811  0.75338416  1
