# generated using pymatgen
data_HfP2O7
_symmetry_space_group_name_H-M   'P 1'
_cell_length_a   5.02356041
_cell_length_b   7.09570295
_cell_length_c   8.41358183
_cell_angle_alpha   91.70548850
_cell_angle_beta   94.25017918
_cell_angle_gamma   105.57478984
_symmetry_Int_Tables_number   1
_chemical_formula_structural   HfP2O7
_chemical_formula_sum   'Hf2 P4 O14'
_cell_volume   287.71586647
_cell_formula_units_Z   2
loop_
 _symmetry_equiv_pos_site_id
 _symmetry_equiv_pos_as_xyz
  1  'x, y, z'
loop_
 _atom_site_type_symbol
 _atom_site_label
 _atom_site_symmetry_multiplicity
 _atom_site_fract_x
 _atom_site_fract_y
 _atom_site_fract_z
 _atom_site_occupancy
  Hf  Hf0  1  -0.00000000  0.00000000  0.00000000  1
  Hf  Hf1  1  0.50000000  0.50000000  0.50000000  1
  P  P2  1  0.49853752  0.13400687  0.76020205  1
  P  P3  1  0.12589597  0.75180917  0.68865857  1
  P  P4  1  0.87410403  0.24819083  0.31134143  1
  P  P5  1  0.50146248  0.86599313  0.23979795  1
  O  O6  1  0.33089003  0.17089641  0.89451551  1
  O  O7  1  0.05279431  0.77319693  0.85865085  1
  O  O8  1  0.74129630  0.06069028  0.82061534  1
  O  O9  1  0.31163447  0.61820010  0.67170226  1
  O  O10  1  0.58506506  0.30693634  0.65822540  1
  O  O11  1  0.29809550  0.96493038  0.64273068  1
  O  O12  1  0.87297335  0.69582842  0.57082159  1
  O  O13  1  0.12702665  0.30417158  0.42917841  1
  O  O14  1  0.70190450  0.03506962  0.35726932  1
  O  O15  1  0.41493494  0.69306366  0.34177460  1
  O  O16  1  0.68836553  0.38179990  0.32829774  1
  O  O17  1  0.25870370  0.93930972  0.17938466  1
  O  O18  1  0.94720569  0.22680307  0.14134915  1
  O  O19  1  0.66910997  0.82910359  0.10548449  1
