# generated using pymatgen
data_CaSiBO5
_symmetry_space_group_name_H-M   'P 1'
_cell_length_a   7.64311930
_cell_length_b   4.89733042
_cell_length_c   9.52346102
_cell_angle_alpha   88.64009689
_cell_angle_beta   90.00000000
_cell_angle_gamma   90.00000000
_symmetry_Int_Tables_number   1
_chemical_formula_structural   CaSiBO5
_chemical_formula_sum   'Ca4 Si4 B4 O20'
_cell_volume   356.37112981
_cell_formula_units_Z   4
loop_
 _symmetry_equiv_pos_site_id
 _symmetry_equiv_pos_as_xyz
  1  'x, y, z'
loop_
 _atom_site_type_symbol
 _atom_site_label
 _atom_site_symmetry_multiplicity
 _atom_site_fract_x
 _atom_site_fract_y
 _atom_site_fract_z
 _atom_site_occupancy
  Ca  Ca0  1  0.61305707  0.00253197  0.83105072  1
  Ca  Ca1  1  0.11305707  0.99746803  0.66894928  1
  Ca  Ca2  1  0.38694293  0.99746803  0.16894928  1
  Ca  Ca3  1  0.88694293  0.00253197  0.33105072  1
  Si  Si4  1  0.75816259  0.52790952  0.58375748  1
  Si  Si5  1  0.25816259  0.47209048  0.91624252  1
  Si  Si6  1  0.24183741  0.47209048  0.41624252  1
  Si  Si7  1  0.74183741  0.52790952  0.08375748  1
  B  B8  1  0.90582422  0.43369879  0.82998762  1
  B  B9  1  0.40582422  0.56630121  0.67001238  1
  B  B10  1  0.09417578  0.56630121  0.17001238  1
  B  B11  1  0.59417578  0.43369879  0.32998762  1
  O  O12  1  0.89657816  0.76453268  0.54809918  1
  O  O13  1  0.39657816  0.23546732  0.95190082  1
  O  O14  1  0.10342184  0.23546732  0.45190082  1
  O  O15  1  0.60342184  0.76453268  0.04809918  1
  O  O16  1  0.79243027  0.35010795  0.94715103  1
  O  O17  1  0.29243027  0.64989205  0.55284897  1
  O  O18  1  0.20756973  0.64989205  0.05284897  1
  O  O19  1  0.70756973  0.35010795  0.44715103  1
  O  O20  1  0.83516113  0.30638951  0.70180104  1
  O  O21  1  0.33516113  0.69361049  0.79819896  1
  O  O22  1  0.16483887  0.69361049  0.29819896  1
  O  O23  1  0.66483887  0.30638951  0.20180104  1
  O  O24  1  0.58268847  0.66786224  0.64961421  1
  O  O25  1  0.08268847  0.33213776  0.85038579  1
  O  O26  1  0.41731153  0.33213776  0.35038579  1
  O  O27  1  0.91731153  0.66786224  0.14961421  1
  O  O28  1  0.89910309  0.73511954  0.80835276  1
  O  O29  1  0.39910309  0.26488046  0.69164724  1
  O  O30  1  0.10089691  0.26488046  0.19164724  1
  O  O31  1  0.60089691  0.73511954  0.30835276  1
