# generated using pymatgen
data_YB4Mo
_symmetry_space_group_name_H-M   'P 1'
_cell_length_a   3.62331518
_cell_length_b   6.02756528
_cell_length_c   11.64192282
_cell_angle_alpha   90.00000000
_cell_angle_beta   90.00000000
_cell_angle_gamma   90.00000000
_symmetry_Int_Tables_number   1
_chemical_formula_structural   YB4Mo
_chemical_formula_sum   'Y4 B16 Mo4'
_cell_volume   254.25690251
_cell_formula_units_Z   4
loop_
 _symmetry_equiv_pos_site_id
 _symmetry_equiv_pos_as_xyz
  1  'x, y, z'
loop_
 _atom_site_type_symbol
 _atom_site_label
 _atom_site_symmetry_multiplicity
 _atom_site_fract_x
 _atom_site_fract_y
 _atom_site_fract_z
 _atom_site_occupancy
  Y  Y0  1  0.00000000  0.12734584  0.14962918  1
  Y  Y1  1  -0.00000000  0.87265416  0.85037082  1
  Y  Y2  1  -0.00000000  0.62734584  0.35037082  1
  Y  Y3  1  -0.00000000  0.37265416  0.64962918  1
  B  B4  1  0.50000000  0.02366453  0.69323952  1
  B  B5  1  0.50000000  0.97633547  0.30676048  1
  B  B6  1  0.50000000  0.52366453  0.80676048  1
  B  B7  1  0.50000000  0.47633547  0.19323952  1
  B  B8  1  0.50000000  0.11370029  0.54734914  1
  B  B9  1  0.50000000  0.88629971  0.45265086  1
  B  B10  1  0.50000000  0.61370029  0.95265086  1
  B  B11  1  0.50000000  0.38629971  0.04734914  1
  B  B12  1  0.50000000  0.28625575  0.31413547  1
  B  B13  1  0.50000000  0.71374425  0.68586453  1
  B  B14  1  0.50000000  0.78625575  0.18586453  1
  B  B15  1  0.50000000  0.21374425  0.81413547  1
  B  B16  1  0.50000000  0.36615963  0.46810759  1
  B  B17  1  0.50000000  0.63384037  0.53189241  1
  B  B18  1  0.50000000  0.86615963  0.03189241  1
  B  B19  1  0.50000000  0.13384037  0.96810759  1
  Mo  Mo20  1  -0.00000000  0.12876385  0.41699664  1
  Mo  Mo21  1  0.00000000  0.87123615  0.58300336  1
  Mo  Mo22  1  -0.00000000  0.62876385  0.08300336  1
  Mo  Mo23  1  0.00000000  0.37123615  0.91699664  1
