# generated using pymatgen
data_NbV3O8
_symmetry_space_group_name_H-M   'P 1'
_cell_length_a   6.42865042
_cell_length_b   6.42865042
_cell_length_c   6.61309060
_cell_angle_alpha   74.17376349
_cell_angle_beta   74.17376349
_cell_angle_gamma   33.88290455
_symmetry_Int_Tables_number   1
_chemical_formula_structural   NbV3O8
_chemical_formula_sum   'Nb1 V3 O8'
_cell_volume   146.04241846
_cell_formula_units_Z   1
loop_
 _symmetry_equiv_pos_site_id
 _symmetry_equiv_pos_as_xyz
  1  'x, y, z'
loop_
 _atom_site_type_symbol
 _atom_site_label
 _atom_site_symmetry_multiplicity
 _atom_site_fract_x
 _atom_site_fract_y
 _atom_site_fract_z
 _atom_site_occupancy
  Nb  Nb0  1  0.30785378  0.30785378  0.27308973  1
  V  V1  1  0.60091038  0.60091038  0.31799311  1
  V  V2  1  0.39916084  0.39916084  0.68789973  1
  V  V3  1  0.69217598  0.69217598  0.73779129  1
  O  O4  1  0.86175645  0.86175645  0.69819454  1
  O  O5  1  0.76462846  0.76462846  0.34689865  1
  O  O6  1  0.63759493  0.63759493  0.99765691  1
  O  O7  1  0.56021740  0.56021740  0.62796773  1
  O  O8  1  0.44104768  0.44104768  0.36963718  1
  O  O9  1  0.36768597  0.36768597  0.99248042  1
  O  O10  1  0.23346143  0.23346143  0.65674182  1
  O  O11  1  0.13350471  0.13350471  0.29364887  1
