# generated using pymatgen
data_Y3ReB7
_symmetry_space_group_name_H-M   'P 1'
_cell_length_a   8.09790907
_cell_length_b   8.09790907
_cell_length_c   9.35562831
_cell_angle_alpha   90.00000000
_cell_angle_beta   90.00000000
_cell_angle_gamma   154.70883644
_symmetry_Int_Tables_number   1
_chemical_formula_structural   Y3ReB7
_chemical_formula_sum   'Y6 Re2 B14'
_cell_volume   262.10102942
_cell_formula_units_Z   2
loop_
 _symmetry_equiv_pos_site_id
 _symmetry_equiv_pos_as_xyz
  1  'x, y, z'
loop_
 _atom_site_type_symbol
 _atom_site_label
 _atom_site_symmetry_multiplicity
 _atom_site_fract_x
 _atom_site_fract_y
 _atom_site_fract_z
 _atom_site_occupancy
  Y  Y0  1  0.89534832  0.10465168  0.94021402  1
  Y  Y1  1  0.10465168  0.89534832  0.05978598  1
  Y  Y2  1  0.75829799  0.24170201  0.25000000  1
  Y  Y3  1  0.24170201  0.75829799  0.75000000  1
  Y  Y4  1  0.89534832  0.10465168  0.55978598  1
  Y  Y5  1  0.10465168  0.89534832  0.44021402  1
  Re  Re6  1  0.05328634  0.94671366  0.75000000  1
  Re  Re7  1  0.94671366  0.05328634  0.25000000  1
  B  B8  1  0.54239674  0.45760326  0.25000000  1
  B  B9  1  0.45760326  0.54239674  0.75000000  1
  B  B10  1  0.52074310  0.47925690  0.90385431  1
  B  B11  1  0.47925690  0.52074310  0.09614569  1
  B  B12  1  0.47925690  0.52074310  0.40385431  1
  B  B13  1  0.52074310  0.47925690  0.59614569  1
  B  B14  1  0.63148621  0.36851379  0.84915856  1
  B  B15  1  0.36851379  0.63148621  0.15084144  1
  B  B16  1  0.72697707  0.27302293  0.96584418  1
  B  B17  1  0.27302293  0.72697707  0.03415582  1
  B  B18  1  0.27302293  0.72697707  0.46584418  1
  B  B19  1  0.72697707  0.27302293  0.53415582  1
  B  B20  1  0.63148621  0.36851379  0.65084144  1
  B  B21  1  0.36851379  0.63148621  0.34915856  1
