# generated using pymatgen
data_Rb3As
_symmetry_space_group_name_H-M   'P 1'
_cell_length_a   6.08094816
_cell_length_b   6.08094811
_cell_length_c   10.73272376
_cell_angle_alpha   90.00000000
_cell_angle_beta   90.00000000
_cell_angle_gamma   120.00000026
_symmetry_Int_Tables_number   1
_chemical_formula_structural   Rb3As
_chemical_formula_sum   'Rb6 As2'
_cell_volume   343.70288759
_cell_formula_units_Z   2
loop_
 _symmetry_equiv_pos_site_id
 _symmetry_equiv_pos_as_xyz
  1  'x, y, z'
loop_
 _atom_site_type_symbol
 _atom_site_label
 _atom_site_symmetry_multiplicity
 _atom_site_fract_x
 _atom_site_fract_y
 _atom_site_fract_z
 _atom_site_occupancy
  Rb  Rb0  1  0.33333300  0.66666700  0.58040093  1
  Rb  Rb1  1  0.66666700  0.33333300  0.08040093  1
  Rb  Rb2  1  0.66666700  0.33333300  0.41959907  1
  Rb  Rb3  1  0.33333300  0.66666700  0.91959907  1
  Rb  Rb4  1  0.00000000  -0.00000000  0.75000000  1
  Rb  Rb5  1  -0.00000000  0.00000000  0.25000000  1
  As  As6  1  0.66666700  0.33333300  0.75000000  1
  As  As7  1  0.33333300  0.66666700  0.25000000  1
