# generated using pymatgen
data_BaMnO3
_symmetry_space_group_name_H-M   'P 1'
_cell_length_a   5.69121041
_cell_length_b   5.69121050
_cell_length_c   14.05376615
_cell_angle_alpha   90.00000120
_cell_angle_beta   89.99999920
_cell_angle_gamma   120.00005113
_symmetry_Int_Tables_number   1
_chemical_formula_structural   BaMnO3
_chemical_formula_sum   'Ba6 Mn6 O18'
_cell_volume   394.21434393
_cell_formula_units_Z   6
loop_
 _symmetry_equiv_pos_site_id
 _symmetry_equiv_pos_as_xyz
  1  'x, y, z'
loop_
 _atom_site_type_symbol
 _atom_site_label
 _atom_site_symmetry_multiplicity
 _atom_site_fract_x
 _atom_site_fract_y
 _atom_site_fract_z
 _atom_site_occupancy
  Ba  Ba0  1  0.33333363  0.66666634  0.16738211  1
  Ba  Ba1  1  0.33333226  0.66666766  0.49999996  1
  Ba  Ba2  1  0.33333360  0.66666641  0.83261791  1
  Ba  Ba3  1  0.00000001  -0.00000038  0.00000002  1
  Ba  Ba4  1  0.66666662  0.33333347  0.66325532  1
  Ba  Ba5  1  0.66666659  0.33333332  0.33674471  1
  Mn  Mn6  1  -0.00000008  0.00000005  0.23497197  1
  Mn  Mn7  1  -0.00000026  0.00000022  0.41204368  1
  Mn  Mn8  1  -0.00000022  0.00000022  0.58795630  1
  Mn  Mn9  1  -0.00000013  0.00000004  0.76502804  1
  Mn  Mn10  1  0.66666725  0.33333266  0.90970431  1
  Mn  Mn11  1  0.66666729  0.33333258  0.09029569  1
  O  O12  1  0.95491699  0.47745593  0.00000002  1
  O  O13  1  0.14665252  0.85334840  0.32609068  1
  O  O14  1  0.14665251  0.85334840  0.67390929  1
  O  O15  1  0.14665152  0.29330540  0.32609066  1
  O  O16  1  0.14665151  0.29330540  0.67390933  1
  O  O17  1  0.70669456  0.85334752  0.32609065  1
  O  O18  1  0.70669455  0.85334754  0.67390933  1
  O  O19  1  0.52254404  0.47745787  0.00000003  1
  O  O20  1  0.29639564  0.14819800  0.49999998  1
  O  O21  1  0.33428244  0.16714170  0.16465757  1
  O  O22  1  0.33428242  0.16714169  0.83534244  1
  O  O23  1  0.52254176  0.04508281  0.00000002  1
  O  O24  1  0.83285926  0.66571751  0.16465756  1
  O  O25  1  0.85180204  0.70360431  0.49999997  1
  O  O26  1  0.83285921  0.66571753  0.83534246  1
  O  O27  1  0.85180168  0.14819820  0.49999998  1
  O  O28  1  0.83285840  0.16714061  0.16465765  1
  O  O29  1  0.83285838  0.16714060  0.83534236  1
