# generated using pymatgen
data_Th(FeSi)2
_symmetry_space_group_name_H-M   'P 1'
_cell_length_a   4.03378817
_cell_length_b   4.03378805
_cell_length_c   5.55865100
_cell_angle_alpha   111.27464219
_cell_angle_beta   111.27463960
_cell_angle_gamma   89.99999180
_symmetry_Int_Tables_number   1
_chemical_formula_structural   Th(FeSi)2
_chemical_formula_sum   'Th1 Fe2 Si2'
_cell_volume   77.63181307
_cell_formula_units_Z   1
loop_
 _symmetry_equiv_pos_site_id
 _symmetry_equiv_pos_as_xyz
  1  'x, y, z'
loop_
 _atom_site_type_symbol
 _atom_site_label
 _atom_site_symmetry_multiplicity
 _atom_site_fract_x
 _atom_site_fract_y
 _atom_site_fract_z
 _atom_site_occupancy
  Th  Th0  1  -0.00000000  -0.00000000  -0.00000000  1
  Fe  Fe1  1  0.75000000  0.25000000  0.50000000  1
  Fe  Fe2  1  0.25000000  0.75000000  0.50000000  1
  Si  Si3  1  0.64012507  0.64012507  0.28025015  1
  Si  Si4  1  0.35987493  0.35987493  0.71974985  1
