# generated using pymatgen
data_H4CSN2
_symmetry_space_group_name_H-M   'P 1'
_cell_length_a   5.48216870
_cell_length_b   7.58369397
_cell_length_c   8.52529250
_cell_angle_alpha   90.00000000
_cell_angle_beta   90.00000000
_cell_angle_gamma   90.00000000
_symmetry_Int_Tables_number   1
_chemical_formula_structural   H4CSN2
_chemical_formula_sum   'H16 C4 S4 N8'
_cell_volume   354.43980016
_cell_formula_units_Z   4
loop_
 _symmetry_equiv_pos_site_id
 _symmetry_equiv_pos_as_xyz
  1  'x, y, z'
loop_
 _atom_site_type_symbol
 _atom_site_label
 _atom_site_symmetry_multiplicity
 _atom_site_fract_x
 _atom_site_fract_y
 _atom_site_fract_z
 _atom_site_occupancy
  H  H0  1  0.25074293  0.63618802  0.13171504  1
  H  H1  1  0.25074293  0.63618802  0.86828496  1
  H  H2  1  0.74925707  0.13618802  0.86828496  1
  H  H3  1  0.74925707  0.13618802  0.13171504  1
  H  H4  1  0.99277460  0.57494674  0.23918476  1
  H  H5  1  0.99277460  0.57494674  0.76081524  1
  H  H6  1  0.00722540  0.07494674  0.76081524  1
  H  H7  1  0.00722540  0.07494674  0.23918476  1
  H  H8  1  0.35536629  0.27940452  0.36864236  1
  H  H9  1  0.35536629  0.27940452  0.63135764  1
  H  H10  1  0.64463371  0.77940452  0.63135764  1
  H  H11  1  0.64463371  0.77940452  0.36864236  1
  H  H12  1  0.57366827  0.39931328  0.26140457  1
  H  H13  1  0.57366827  0.39931328  0.73859543  1
  H  H14  1  0.42633173  0.89931328  0.73859543  1
  H  H15  1  0.42633173  0.89931328  0.26140457  1
  C  C16  1  0.95298252  0.57285917  0.00000000  1
  C  C17  1  0.04701748  0.07285917  0.00000000  1
  C  C18  1  0.61319713  0.40505971  0.50000000  1
  C  C19  1  0.38680287  0.90505971  0.50000000  1
  S  S20  1  0.65493589  0.50722994  0.00000000  1
  S  S21  1  0.34506411  0.00722994  0.00000000  1
  S  S22  1  0.87091910  0.53171629  0.50000000  1
  S  S23  1  0.12908090  0.03171629  0.50000000  1
  N  N24  1  0.07331365  0.59919071  0.13387342  1
  N  N25  1  0.07331365  0.59919071  0.86612658  1
  N  N26  1  0.92668635  0.09919071  0.86612658  1
  N  N27  1  0.92668635  0.09919071  0.13387342  1
  N  N28  1  0.50999081  0.35337519  0.36583579  1
  N  N29  1  0.50999081  0.35337519  0.63416421  1
  N  N30  1  0.49000919  0.85337519  0.63416421  1
  N  N31  1  0.49000919  0.85337519  0.36583579  1
