# generated using pymatgen
data_Eu2SeO2
_symmetry_space_group_name_H-M   'P 1'
_cell_length_a   3.92608385
_cell_length_b   3.92615354
_cell_length_c   7.07413574
_cell_angle_alpha   90.00045531
_cell_angle_beta   90.00005113
_cell_angle_gamma   119.99922412
_symmetry_Int_Tables_number   1
_chemical_formula_structural   Eu2SeO2
_chemical_formula_sum   'Eu2 Se1 O2'
_cell_volume   94.43527859
_cell_formula_units_Z   1
loop_
 _symmetry_equiv_pos_site_id
 _symmetry_equiv_pos_as_xyz
  1  'x, y, z'
loop_
 _atom_site_type_symbol
 _atom_site_label
 _atom_site_symmetry_multiplicity
 _atom_site_fract_x
 _atom_site_fract_y
 _atom_site_fract_z
 _atom_site_occupancy
  Eu  Eu0  1  0.33325214  0.66665923  0.29389032  1
  Eu  Eu1  1  0.66659236  0.33334107  0.70610176  1
  Se  Se2  1  0.00010636  -0.00000018  1.00004119  1
  O  O3  1  0.33326238  0.66667596  0.62617810  1
  O  O4  1  0.66658577  0.33332393  0.37378864  1
