# generated using pymatgen
data_EuSeO3
_symmetry_space_group_name_H-M   'P 1'
_cell_length_a   4.43188212
_cell_length_b   5.42362696
_cell_length_c   6.44986347
_cell_angle_alpha   90.00037742
_cell_angle_beta   106.72739636
_cell_angle_gamma   90.00187766
_symmetry_Int_Tables_number   1
_chemical_formula_structural   EuSeO3
_chemical_formula_sum   'Eu2 Se2 O6'
_cell_volume   148.47427375
_cell_formula_units_Z   2
loop_
 _symmetry_equiv_pos_site_id
 _symmetry_equiv_pos_as_xyz
  1  'x, y, z'
loop_
 _atom_site_type_symbol
 _atom_site_label
 _atom_site_symmetry_multiplicity
 _atom_site_fract_x
 _atom_site_fract_y
 _atom_site_fract_z
 _atom_site_occupancy
  Eu  Eu0  1  0.33951213  0.74999675  0.70018284  1
  Eu  Eu1  1  0.66048787  0.25000325  0.29981716  1
  Se  Se2  1  0.06810451  0.74999387  0.15278662  1
  Se  Se3  1  0.93189549  0.25000613  0.84721338  1
  O  O4  1  0.33086736  0.25000167  0.88753305  1
  O  O5  1  0.18222846  0.50954472  0.33204383  1
  O  O6  1  0.18222432  0.99045675  0.33203992  1
  O  O7  1  0.81777568  0.00954325  0.66796008  1
  O  O8  1  0.81777154  0.49045528  0.66795617  1
  O  O9  1  0.66913264  0.74999833  0.11246695  1
