# generated using pymatgen
data_K2Mn(C2O5)2
_symmetry_space_group_name_H-M   'P 1'
_cell_length_a   7.07815798
_cell_length_b   7.07815798
_cell_length_c   10.18096654
_cell_angle_alpha   90.00000000
_cell_angle_beta   90.00000000
_cell_angle_gamma   113.66462642
_symmetry_Int_Tables_number   1
_chemical_formula_structural   K2Mn(C2O5)2
_chemical_formula_sum   'K4 Mn2 C8 O20'
_cell_volume   467.17821945
_cell_formula_units_Z   2
loop_
 _symmetry_equiv_pos_site_id
 _symmetry_equiv_pos_as_xyz
  1  'x, y, z'
loop_
 _atom_site_type_symbol
 _atom_site_label
 _atom_site_symmetry_multiplicity
 _atom_site_fract_x
 _atom_site_fract_y
 _atom_site_fract_z
 _atom_site_occupancy
  K  K0  1  0.36176023  0.16271569  0.20618457  1
  K  K1  1  0.83728431  0.63823977  0.20618457  1
  K  K2  1  0.63823977  0.83728431  0.70618457  1
  K  K3  1  0.16271569  0.36176023  0.70618457  1
  Mn  Mn4  1  0.17503283  0.82496717  0.49017955  1
  Mn  Mn5  1  0.82496717  0.17503283  0.99017955  1
  C  C6  1  0.34109364  0.65890636  0.29033216  1
  C  C7  1  0.65890636  0.34109364  0.79033216  1
  C  C8  1  0.41460214  0.58539786  0.41352677  1
  C  C9  1  0.58539786  0.41460214  0.91352677  1
  C  C10  1  0.86117215  0.13882785  0.27779327  1
  C  C11  1  0.13882785  0.86117215  0.77779327  1
  C  C12  1  0.92985925  0.07014075  0.41281903  1
  C  C13  1  0.07014075  0.92985925  0.91281903  1
  O  O14  1  0.23168994  0.76831006  0.31461189  1
  O  O15  1  0.76831006  0.23168994  0.81461189  1
  O  O16  1  0.38230517  0.61769483  0.18112848  1
  O  O17  1  0.61769483  0.38230517  0.68112848  1
  O  O18  1  0.35752870  0.64247130  0.52058073  1
  O  O19  1  0.64247130  0.35752870  0.02058073  1
  O  O20  1  0.51796187  0.48203813  0.40099398  1
  O  O21  1  0.48203813  0.51796187  0.90099398  1
  O  O22  1  0.75782262  0.24217738  0.28730242  1
  O  O23  1  0.24217738  0.75782262  0.78730242  1
  O  O24  1  0.92192194  0.07807806  0.17375791  1
  O  O25  1  0.07807806  0.92192194  0.67375791  1
  O  O26  1  0.87983619  0.12016381  0.51676034  1
  O  O27  1  0.12016381  0.87983619  0.01676034  1
  O  O28  1  0.03919333  0.96080667  0.39256461  1
  O  O29  1  0.96080667  0.03919333  0.89256461  1
  O  O30  1  0.39110100  0.00472715  0.53278887  1
  O  O31  1  0.99527285  0.60889900  0.53278887  1
  O  O32  1  0.60889900  0.99527285  0.03278887  1
  O  O33  1  0.00472715  0.39110100  0.03278887  1
