# generated using pymatgen
data_Li5Fe2P2(CO7)2
_symmetry_space_group_name_H-M   'P 1'
_cell_length_a   6.47108700
_cell_length_b   8.42523200
_cell_length_c   10.15892754
_cell_angle_alpha   84.46586717
_cell_angle_beta   90.00000000
_cell_angle_gamma   90.00000000
_symmetry_Int_Tables_number   1
_chemical_formula_structural   Li5Fe2P2(CO7)2
_chemical_formula_sum   'Li10 Fe4 P4 C4 O28'
_cell_volume   551.28726186
_cell_formula_units_Z   2
loop_
 _symmetry_equiv_pos_site_id
 _symmetry_equiv_pos_as_xyz
  1  'x, y, z'
loop_
 _atom_site_type_symbol
 _atom_site_label
 _atom_site_symmetry_multiplicity
 _atom_site_fract_x
 _atom_site_fract_y
 _atom_site_fract_z
 _atom_site_occupancy
  Li  Li0  1  0.49306100  0.89706100  0.60957500  1
  Li  Li1  1  0.50693900  0.89706100  0.10957500  1
  Li  Li2  1  0.31277700  0.71179600  0.88171600  1
  Li  Li3  1  0.68722300  0.71179600  0.38171600  1
  Li  Li4  1  0.74649700  0.26087800  0.62867600  1
  Li  Li5  1  0.24959200  0.26575300  0.63156600  1
  Li  Li6  1  0.75040800  0.26575300  0.13156600  1
  Li  Li7  1  0.25350300  0.26087800  0.12867600  1
  Li  Li8  1  0.00139000  0.09886600  0.88157000  1
  Li  Li9  1  0.99861000  0.09886600  0.38157000  1
  Fe  Fe10  1  0.99963800  0.67174500  0.60220600  1
  Fe  Fe11  1  0.00036200  0.67174500  0.10220600  1
  Fe  Fe12  1  0.50675800  0.33208000  0.89428500  1
  Fe  Fe13  1  0.49324200  0.33208000  0.39428500  1
  P  P14  1  0.49434600  0.58517100  0.64159100  1
  P  P15  1  0.50565400  0.58517100  0.14159100  1
  P  P16  1  0.00967800  0.41842500  0.86785700  1
  P  P17  1  0.99032200  0.41842500  0.36785700  1
  C  C18  1  0.99964600  0.96359500  0.64809700  1
  C  C19  1  0.00035400  0.96359500  0.14809700  1
  C  C20  1  0.49180800  0.03862900  0.84163300  1
  C  C21  1  0.50819200  0.03862900  0.34163300  1
  O  O22  1  0.99067300  0.92963600  0.52587000  1
  O  O23  1  0.45737000  0.90104600  0.80576400  1
  O  O24  1  0.00932700  0.92963600  0.02587000  1
  O  O25  1  0.00670000  0.84280200  0.73712100  1
  O  O26  1  0.54263000  0.90104600  0.30576400  1
  O  O27  1  0.99330000  0.84280200  0.23712100  1
  O  O28  1  0.30420000  0.68781400  0.59175900  1
  O  O29  1  0.68221100  0.69337100  0.59261700  1
  O  O30  1  0.31778900  0.69337100  0.09261700  1
  O  O31  1  0.69580000  0.68781400  0.09175900  1
  O  O32  1  0.03729800  0.57684700  0.93014800  1
  O  O33  1  0.48478900  0.55884800  0.79338600  1
  O  O34  1  0.96270200  0.57684700  0.43014800  1
  O  O35  1  0.51521100  0.55884800  0.29338600  1
  O  O36  1  0.99863700  0.45607800  0.71349200  1
  O  O37  1  0.50362300  0.42327600  0.58263400  1
  O  O38  1  0.00136300  0.45607800  0.21349200  1
  O  O39  1  0.49637700  0.42327600  0.08263400  1
  O  O40  1  0.81979100  0.31900000  0.91974500  1
  O  O41  1  0.18929100  0.29942000  0.90541600  1
  O  O42  1  0.81070900  0.29942000  0.40541600  1
  O  O43  1  0.18020900  0.31900000  0.41974500  1
  O  O44  1  0.51261400  0.16138300  0.75042700  1
  O  O45  1  0.00068900  0.10910100  0.68045700  1
  O  O46  1  0.48738600  0.16138300  0.25042700  1
  O  O47  1  0.50454300  0.06849600  0.96500400  1
  O  O48  1  0.99931100  0.10910100  0.18045700  1
  O  O49  1  0.49545700  0.06849600  0.46500400  1
