# generated using pymatgen
data_ZrTlCuSe3
_symmetry_space_group_name_H-M   'P 1'
_cell_length_a   7.60187131
_cell_length_b   7.60187131
_cell_length_c   10.17955111
_cell_angle_alpha   90.00000000
_cell_angle_beta   90.00000000
_cell_angle_gamma   150.49192676
_symmetry_Int_Tables_number   1
_chemical_formula_structural   ZrTlCuSe3
_chemical_formula_sum   'Zr2 Tl2 Cu2 Se6'
_cell_volume   289.74544647
_cell_formula_units_Z   2
loop_
 _symmetry_equiv_pos_site_id
 _symmetry_equiv_pos_as_xyz
  1  'x, y, z'
loop_
 _atom_site_type_symbol
 _atom_site_label
 _atom_site_symmetry_multiplicity
 _atom_site_fract_x
 _atom_site_fract_y
 _atom_site_fract_z
 _atom_site_occupancy
  Zr  Zr0  1  -0.00000000  0.00000000  0.50000000  1
  Zr  Zr1  1  -0.00000000  0.00000000  -0.00000000  1
  Tl  Tl2  1  0.74982854  0.25017146  0.25000000  1
  Tl  Tl3  1  0.25017146  0.74982854  0.75000000  1
  Cu  Cu4  1  0.53504761  0.46495239  0.75000000  1
  Cu  Cu5  1  0.46495239  0.53504761  0.25000000  1
  Se  Se6  1  0.37527303  0.62472697  0.05237556  1
  Se  Se7  1  0.62472697  0.37527303  0.94762444  1
  Se  Se8  1  0.62472697  0.37527303  0.55237556  1
  Se  Se9  1  0.37527303  0.62472697  0.44762444  1
  Se  Se10  1  0.93355156  0.06644844  0.75000000  1
  Se  Se11  1  0.06644844  0.93355156  0.25000000  1
