# generated using pymatgen
data_NdSeO
_symmetry_space_group_name_H-M   'P 1'
_cell_length_a   7.29024555
_cell_length_b   7.29024555
_cell_length_c   5.99489048
_cell_angle_alpha   90.00000000
_cell_angle_beta   90.00000000
_cell_angle_gamma   131.38329437
_symmetry_Int_Tables_number   1
_chemical_formula_structural   NdSeO
_chemical_formula_sum   'Nd4 Se4 O4'
_cell_volume   239.05770398
_cell_formula_units_Z   4
loop_
 _symmetry_equiv_pos_site_id
 _symmetry_equiv_pos_as_xyz
  1  'x, y, z'
loop_
 _atom_site_type_symbol
 _atom_site_label
 _atom_site_symmetry_multiplicity
 _atom_site_fract_x
 _atom_site_fract_y
 _atom_site_fract_z
 _atom_site_occupancy
  Nd  Nd0  1  0.33247303  0.66752697  0.00000000  1
  Nd  Nd1  1  0.16752697  0.83247303  0.50000000  1
  Nd  Nd2  1  0.83247303  0.16752697  0.50000000  1
  Nd  Nd3  1  0.66752697  0.33247303  0.00000000  1
  Se  Se4  1  0.85974136  0.85974136  0.85943304  1
  Se  Se5  1  0.35974136  0.35974136  0.64056696  1
  Se  Se6  1  0.14025864  0.14025864  0.14056696  1
  Se  Se7  1  0.64025864  0.64025864  0.35943304  1
  O  O8  1  0.49388684  0.99388684  0.75000000  1
  O  O9  1  0.00611316  0.50611316  0.25000000  1
  O  O10  1  0.50611316  0.00611316  0.25000000  1
  O  O11  1  0.99388684  0.49388684  0.75000000  1
