# generated using pymatgen
data_Nd(PO3)3
_symmetry_space_group_name_H-M   'P 1'
_cell_length_a   7.04399953
_cell_length_b   7.04399953
_cell_length_c   7.29570129
_cell_angle_alpha   90.00000000
_cell_angle_beta   90.00000000
_cell_angle_gamma   105.31190166
_symmetry_Int_Tables_number   1
_chemical_formula_structural   Nd(PO3)3
_chemical_formula_sum   'Nd2 P6 O18'
_cell_volume   349.14761261
_cell_formula_units_Z   2
loop_
 _symmetry_equiv_pos_site_id
 _symmetry_equiv_pos_as_xyz
  1  'x, y, z'
loop_
 _atom_site_type_symbol
 _atom_site_label
 _atom_site_symmetry_multiplicity
 _atom_site_fract_x
 _atom_site_fract_y
 _atom_site_fract_z
 _atom_site_occupancy
  Nd  Nd0  1  0.87627379  0.87627379  -0.00000000  1
  Nd  Nd1  1  0.12372621  0.12372621  0.50000000  1
  P  P2  1  0.33483916  0.68479211  0.04559390  1
  P  P3  1  0.66516084  0.31520789  0.54559390  1
  P  P4  1  0.68479211  0.33483916  0.95440610  1
  P  P5  1  0.31520789  0.66516084  0.45440610  1
  P  P6  1  0.25145245  0.25145245  -0.00000000  1
  P  P7  1  0.74854755  0.74854755  0.50000000  1
  O  O8  1  0.25260349  0.47028094  0.95750770  1
  O  O9  1  0.74739651  0.52971906  0.45750770  1
  O  O10  1  0.47028094  0.25260349  0.04249230  1
  O  O11  1  0.52971906  0.74739651  0.54249230  1
  O  O12  1  0.78060398  0.52757011  0.03779476  1
  O  O13  1  0.21939602  0.47242989  0.53779476  1
  O  O14  1  0.52757011  0.78060398  0.96220524  1
  O  O15  1  0.47242989  0.21939602  0.46220524  1
  O  O16  1  0.37393305  0.62606695  0.25000000  1
  O  O17  1  0.62606695  0.37393305  0.75000000  1
  O  O18  1  0.82708904  0.86577252  0.33192160  1
  O  O19  1  0.17291096  0.13422748  0.83192160  1
  O  O20  1  0.86577252  0.82708904  0.66807840  1
  O  O21  1  0.13422748  0.17291096  0.16807840  1
  O  O22  1  0.21562872  0.82468700  0.46278490  1
  O  O23  1  0.78437128  0.17531300  0.96278490  1
  O  O24  1  0.82468700  0.21562872  0.53721510  1
  O  O25  1  0.17531300  0.78437128  0.03721510  1
