# generated using pymatgen
data_MnF4
_symmetry_space_group_name_H-M   'P 1'
_cell_length_a   5.36015229
_cell_length_b   4.60241622
_cell_length_c   5.24783676
_cell_angle_alpha   89.99999451
_cell_angle_beta   117.17742017
_cell_angle_gamma   90.00002186
_symmetry_Int_Tables_number   1
_chemical_formula_structural   MnF4
_chemical_formula_sum   'Mn2 F8'
_cell_volume   115.16920672
_cell_formula_units_Z   2
loop_
 _symmetry_equiv_pos_site_id
 _symmetry_equiv_pos_as_xyz
  1  'x, y, z'
loop_
 _atom_site_type_symbol
 _atom_site_label
 _atom_site_symmetry_multiplicity
 _atom_site_fract_x
 _atom_site_fract_y
 _atom_site_fract_z
 _atom_site_occupancy
  Mn  Mn0  1  -0.00000000  0.50000000  0.50000000  1
  Mn  Mn1  1  -0.00000000  -0.00000000  0.00000000  1
  F  F2  1  0.13803684  0.27416437  0.83265896  1
  F  F3  1  0.13803684  0.22583563  0.33265896  1
  F  F4  1  0.31966390  0.68105165  0.63597147  1
  F  F5  1  0.31966390  0.81894835  0.13597147  1
  F  F6  1  0.68033610  0.18105165  0.86402853  1
  F  F7  1  0.68033610  0.31894835  0.36402853  1
  F  F8  1  0.86196316  0.77416437  0.66734104  1
  F  F9  1  0.86196316  0.72583563  0.16734104  1
