# generated using pymatgen
data_Cd(NiO2)2
_symmetry_space_group_name_H-M   'P 1'
_cell_length_a   5.75610430
_cell_length_b   6.15481166
_cell_length_c   5.75584358
_cell_angle_alpha   62.12311732
_cell_angle_beta   90.00715054
_cell_angle_gamma   117.87694531
_symmetry_Int_Tables_number   1
_chemical_formula_structural   Cd(NiO2)2
_chemical_formula_sum   'Cd2 Ni4 O8'
_cell_volume   152.97874422
_cell_formula_units_Z   2
loop_
 _symmetry_equiv_pos_site_id
 _symmetry_equiv_pos_as_xyz
  1  'x, y, z'
loop_
 _atom_site_type_symbol
 _atom_site_label
 _atom_site_symmetry_multiplicity
 _atom_site_fract_x
 _atom_site_fract_y
 _atom_site_fract_z
 _atom_site_occupancy
  Cd  Cd0  1  -0.00004115  -0.00000261  -0.00003246  1
  Cd  Cd1  1  0.75002516  0.50000963  0.75001090  1
  Ni  Ni2  1  0.37499868  0.25003526  0.37500409  1
  Ni  Ni3  1  0.87501008  0.24999273  0.37501886  1
  Ni  Ni4  1  0.37500766  0.74996426  0.37499347  1
  Ni  Ni5  1  0.37502417  0.75000975  0.87500576  1
  O  O6  1  0.14782943  0.29580827  0.13840483  1
  O  O7  1  0.60200222  0.20414576  0.18419195  1
  O  O8  1  0.56581453  0.70418330  0.14798054  1
  O  O9  1  0.13847158  0.70426343  0.14779094  1
  O  O10  1  0.60216756  0.20421343  0.61156995  1
  O  O11  1  0.14801472  0.29588621  0.56581155  1
  O  O12  1  0.18418315  0.79577704  0.60204484  1
  O  O13  1  0.61149521  0.79571353  0.60220578  1
