# generated using pymatgen
data_SiH10(O2F3)2
_symmetry_space_group_name_H-M   'P 1'
_cell_length_a   9.80075754
_cell_length_b   5.93697961
_cell_length_c   6.44622678
_cell_angle_alpha   75.53119788
_cell_angle_beta   90.00000000
_cell_angle_gamma   90.00000000
_symmetry_Int_Tables_number   1
_chemical_formula_structural   SiH10(O2F3)2
_chemical_formula_sum   'Si2 H20 O8 F12'
_cell_volume   363.18964863
_cell_formula_units_Z   2
loop_
 _symmetry_equiv_pos_site_id
 _symmetry_equiv_pos_as_xyz
  1  'x, y, z'
loop_
 _atom_site_type_symbol
 _atom_site_label
 _atom_site_symmetry_multiplicity
 _atom_site_fract_x
 _atom_site_fract_y
 _atom_site_fract_z
 _atom_site_occupancy
  Si  Si0  1  0.50000000  0.00000000  0.50000000  1
  Si  Si1  1  0.00000000  0.00000000  -0.00000000  1
  H  H2  1  0.62264176  0.78699529  0.91352972  1
  H  H3  1  0.12264176  0.21300471  0.58647028  1
  H  H4  1  0.37735824  0.21300471  0.08647028  1
  H  H5  1  0.87735824  0.78699529  0.41352972  1
  H  H6  1  0.61787293  0.82811946  0.15032561  1
  H  H7  1  0.11787293  0.17188054  0.34967439  1
  H  H8  1  0.38212707  0.17188054  0.84967439  1
  H  H9  1  0.88212707  0.82811946  0.65032561  1
  H  H10  1  0.69418592  0.56711531  0.12839152  1
  H  H11  1  0.19418592  0.43288469  0.37160848  1
  H  H12  1  0.30581408  0.43288469  0.87160848  1
  H  H13  1  0.80581408  0.56711531  0.62839152  1
  H  H14  1  0.72506266  0.25658688  0.23733560  1
  H  H15  1  0.22506266  0.74341312  0.26266440  1
  H  H16  1  0.27493734  0.74341312  0.76266440  1
  H  H17  1  0.77493734  0.25658688  0.73733560  1
  H  H18  1  0.85652281  0.38987713  0.12973659  1
  H  H19  1  0.35652281  0.61012287  0.37026341  1
  H  H20  1  0.14347719  0.61012287  0.87026341  1
  H  H21  1  0.64347719  0.38987713  0.62973659  1
  O  O22  1  0.61420249  0.70907443  0.06779960  1
  O  O23  1  0.11420249  0.29092557  0.43220040  1
  O  O24  1  0.38579751  0.29092557  0.93220040  1
  O  O25  1  0.88579751  0.70907443  0.56779960  1
  O  O26  1  0.77487049  0.40394223  0.21384483  1
  O  O27  1  0.27487049  0.59605777  0.28615517  1
  O  O28  1  0.22512951  0.59605777  0.78615517  1
  O  O29  1  0.72512951  0.40394223  0.71384483  1
  F  F30  1  0.63393707  0.93640637  0.67173138  1
  F  F31  1  0.13393707  0.06359363  0.82826862  1
  F  F32  1  0.36606293  0.06359363  0.32826862  1
  F  F33  1  0.86606293  0.93640637  0.17173138  1
  F  F34  1  0.48087161  0.71620827  0.51151938  1
  F  F35  1  0.98087161  0.28379173  -0.01151938  1
  F  F36  1  0.51912839  0.28379173  0.48848062  1
  F  F37  1  0.01912839  0.71620827  0.01151938  1
  F  F38  1  0.39069633  0.97165454  0.71308128  1
  F  F39  1  0.89069633  0.02834546  0.78691872  1
  F  F40  1  0.60930367  0.02834546  0.28691872  1
  F  F41  1  0.10930367  0.97165454  0.21308128  1
