# generated using pymatgen
data_Ba3SiO
_symmetry_space_group_name_H-M   'P 1'
_cell_length_a   7.57657891
_cell_length_b   7.69821590
_cell_length_c   10.80878583
_cell_angle_alpha   90.00000000
_cell_angle_beta   90.00000000
_cell_angle_gamma   90.00000000
_symmetry_Int_Tables_number   1
_chemical_formula_structural   Ba3SiO
_chemical_formula_sum   'Ba12 Si4 O4'
_cell_volume   630.43475806
_cell_formula_units_Z   4
loop_
 _symmetry_equiv_pos_site_id
 _symmetry_equiv_pos_as_xyz
  1  'x, y, z'
loop_
 _atom_site_type_symbol
 _atom_site_label
 _atom_site_symmetry_multiplicity
 _atom_site_fract_x
 _atom_site_fract_y
 _atom_site_fract_z
 _atom_site_occupancy
  Ba  Ba0  1  0.07612160  0.48218751  0.25000000  1
  Ba  Ba1  1  0.21006211  0.21040748  0.53983043  1
  Ba  Ba2  1  0.21006211  0.21040748  0.96016957  1
  Ba  Ba3  1  0.28993789  0.71040748  0.53983043  1
  Ba  Ba4  1  0.28993789  0.71040748  0.96016957  1
  Ba  Ba5  1  0.42387840  0.98218751  0.25000000  1
  Ba  Ba6  1  0.57612160  0.01781249  0.75000000  1
  Ba  Ba7  1  0.71006111  0.28959252  0.03983043  1
  Ba  Ba8  1  0.71006111  0.28959252  0.46016957  1
  Ba  Ba9  1  0.78993889  0.78959252  0.03983043  1
  Ba  Ba10  1  0.78993889  0.78959252  0.46016957  1
  Ba  Ba11  1  0.92387840  0.51781249  0.75000000  1
  Si  Si12  1  0.01137434  0.96248382  0.75000000  1
  Si  Si13  1  0.48862566  0.46248382  0.75000000  1
  Si  Si14  1  0.51137434  0.53751618  0.25000000  1
  Si  Si15  1  0.98862566  0.03751618  0.25000000  1
  O  O16  1  -0.00000000  0.50000000  0.00000000  1
  O  O17  1  -0.00000000  0.50000000  0.50000000  1
  O  O18  1  0.50000000  -0.00000000  0.00000000  1
  O  O19  1  0.50000000  -0.00000000  0.50000000  1
