# generated using pymatgen
data_RbAgF3
_symmetry_space_group_name_H-M   'P 1'
_cell_length_a   6.15212749
_cell_length_b   6.15212744
_cell_length_c   6.15212754
_cell_angle_alpha   90.35099543
_cell_angle_beta   119.79756804
_cell_angle_gamma   119.79755238
_symmetry_Int_Tables_number   1
_chemical_formula_structural   RbAgF3
_chemical_formula_sum   'Rb2 Ag2 F6'
_cell_volume   165.15016611
_cell_formula_units_Z   2
loop_
 _symmetry_equiv_pos_site_id
 _symmetry_equiv_pos_as_xyz
  1  'x, y, z'
loop_
 _atom_site_type_symbol
 _atom_site_label
 _atom_site_symmetry_multiplicity
 _atom_site_fract_x
 _atom_site_fract_y
 _atom_site_fract_z
 _atom_site_occupancy
  Rb  Rb0  1  0.00000000  0.25000000  0.25000000  1
  Rb  Rb1  1  0.00000000  0.75000000  0.75000000  1
  Ag  Ag2  1  0.50000000  0.50000000  0.00000000  1
  Ag  Ag3  1  0.50000000  0.00000000  0.50000000  1
  F  F4  1  0.01612032  0.25805966  0.75805966  1
  F  F5  1  0.50000000  0.75805966  0.74194034  1
  F  F6  1  0.50000000  0.24194034  0.25805966  1
  F  F7  1  0.98387968  0.74194034  0.24194034  1
  F  F8  1  0.50000000  0.75000000  0.25000000  1
  F  F9  1  0.50000000  0.25000000  0.75000000  1
