# generated using pymatgen
data_KMn2O4
_symmetry_space_group_name_H-M   'P 1'
_cell_length_a   12.53771162
_cell_length_b   2.98022453
_cell_length_c   5.06217778
_cell_angle_alpha   86.46339760
_cell_angle_beta   90.00000000
_cell_angle_gamma   90.00000000
_symmetry_Int_Tables_number   1
_chemical_formula_structural   KMn2O4
_chemical_formula_sum   'K2 Mn4 O8'
_cell_volume   188.78904690
_cell_formula_units_Z   2
loop_
 _symmetry_equiv_pos_site_id
 _symmetry_equiv_pos_as_xyz
  1  'x, y, z'
loop_
 _atom_site_type_symbol
 _atom_site_label
 _atom_site_symmetry_multiplicity
 _atom_site_fract_x
 _atom_site_fract_y
 _atom_site_fract_z
 _atom_site_occupancy
  K  K0  1  0.25000000  -0.04224423  0.66463314  1
  K  K1  1  0.75000000  0.04224423  0.33536686  1
  Mn  Mn2  1  -0.00000000  0.50000000  0.50000000  1
  Mn  Mn3  1  0.50000000  0.50000000  0.50000000  1
  Mn  Mn4  1  0.50000000  -0.00000000  0.00000000  1
  Mn  Mn5  1  -0.00000000  -0.00000000  0.00000000  1
  O  O6  1  0.41789902  0.45045167  0.81370616  1
  O  O7  1  0.08210098  0.45045167  0.81370616  1
  O  O8  1  0.57708507  0.98645550  0.65773652  1
  O  O9  1  0.92291493  0.98645550  0.65773652  1
  O  O10  1  0.91789902  0.54954833  0.18629384  1
  O  O11  1  0.58210098  0.54954833  0.18629384  1
  O  O12  1  0.42291493  0.01354450  0.34226348  1
  O  O13  1  0.07708507  0.01354450  0.34226348  1
