# generated using pymatgen
data_VOF2
_symmetry_space_group_name_H-M   'P 1'
_cell_length_a   5.05181064
_cell_length_b   5.29157994
_cell_length_c   11.51102526
_cell_angle_alpha   100.52090452
_cell_angle_beta   102.33225227
_cell_angle_gamma   90.18067333
_symmetry_Int_Tables_number   1
_chemical_formula_structural   VOF2
_chemical_formula_sum   'V6 O6 F12'
_cell_volume   295.27453423
_cell_formula_units_Z   6
loop_
 _symmetry_equiv_pos_site_id
 _symmetry_equiv_pos_as_xyz
  1  'x, y, z'
loop_
 _atom_site_type_symbol
 _atom_site_label
 _atom_site_symmetry_multiplicity
 _atom_site_fract_x
 _atom_site_fract_y
 _atom_site_fract_z
 _atom_site_occupancy
  V  V0  1  0.85236158  0.80277646  0.66385732  1
  V  V1  1  0.70009213  0.69571805  0.33620406  1
  V  V2  1  0.51902902  0.53012740  0.99689117  1
  V  V3  1  0.35416165  0.34343736  0.66860880  1
  V  V4  1  0.03266376  0.02580098  0.00472994  1
  V  V5  1  0.18596786  0.20153207  0.32945151  1
  O  O6  1  0.96484388  0.89137814  0.36042671  1
  O  O7  1  0.61662316  0.55236514  0.69135045  1
  O  O8  1  0.29892939  0.22071374  0.03222142  1
  O  O9  1  0.68492657  0.77414603  0.97293653  1
  O  O10  1  0.35507718  0.44515266  0.30673969  1
  O  O11  1  0.08960887  0.59618910  0.63694932  1
  F  F12  1  0.96534277  0.09472971  0.16718511  1
  F  F13  1  0.88526935  0.39188670  0.37600671  1
  F  F14  1  0.68910096  0.55924349  0.16694798  1
  F  F15  1  0.64001278  0.76342988  0.49952490  1
  F  F16  1  0.76492849  0.26738168  0.95703428  1
  F  F17  1  0.43075620  0.93675195  0.28722430  1
  F  F18  1  0.21270663  0.71693360  0.03973124  1
  F  F19  1  0.55801861  0.04704507  0.70142589  1
  F  F20  1  0.35346576  0.22262646  0.49887468  1
  F  F21  1  0.30442373  0.41117556  0.83486277  1
  F  F22  1  0.02560018  0.10527266  0.63638070  1
  F  F23  1  0.01609249  0.90418512  0.83443552  1
