# generated using pymatgen
data_H13ClO6
_symmetry_space_group_name_H-M   'P 1'
_cell_length_a   6.12637264
_cell_length_b   6.37539590
_cell_length_c   17.79253399
_cell_angle_alpha   90.00000000
_cell_angle_beta   90.00000000
_cell_angle_gamma   90.00000000
_symmetry_Int_Tables_number   1
_chemical_formula_structural   H13ClO6
_chemical_formula_sum   'H52 Cl4 O24'
_cell_volume   694.94170020
_cell_formula_units_Z   4
loop_
 _symmetry_equiv_pos_site_id
 _symmetry_equiv_pos_as_xyz
  1  'x, y, z'
loop_
 _atom_site_type_symbol
 _atom_site_label
 _atom_site_symmetry_multiplicity
 _atom_site_fract_x
 _atom_site_fract_y
 _atom_site_fract_z
 _atom_site_occupancy
  H  H0  1  0.09881796  0.52869031  0.70533069  1
  H  H1  1  0.90118204  0.47130969  0.20533069  1
  H  H2  1  0.09881796  0.97130969  0.29466931  1
  H  H3  1  0.90118204  0.02869031  0.79466931  1
  H  H4  1  0.90118204  0.47130969  0.29466931  1
  H  H5  1  0.09881796  0.52869031  0.79466931  1
  H  H6  1  0.90118204  0.02869031  0.70533069  1
  H  H7  1  0.09881796  0.97130969  0.20533069  1
  H  H8  1  0.27331006  0.28848703  0.75000000  1
  H  H9  1  0.72668994  0.71151297  0.25000000  1
  H  H10  1  0.27331006  0.21151297  0.25000000  1
  H  H11  1  0.72668994  0.78848703  0.75000000  1
  H  H12  1  0.39950781  0.09141709  0.70181004  1
  H  H13  1  0.60049219  0.90858291  0.20181004  1
  H  H14  1  0.39950781  0.40858291  0.29818996  1
  H  H15  1  0.60049219  0.59141709  0.79818996  1
  H  H16  1  0.60049219  0.90858291  0.29818996  1
  H  H17  1  0.39950781  0.09141709  0.79818996  1
  H  H18  1  0.60049219  0.59141709  0.70181004  1
  H  H19  1  0.39950781  0.40858291  0.20181004  1
  H  H20  1  0.63396952  0.56357467  0.58715943  1
  H  H21  1  0.36603048  0.43642533  0.08715943  1
  H  H22  1  0.63396952  0.93642533  0.41284057  1
  H  H23  1  0.36603048  0.06357467  0.91284057  1
  H  H24  1  0.36603048  0.43642533  0.41284057  1
  H  H25  1  0.63396952  0.56357467  0.91284057  1
  H  H26  1  0.36603048  0.06357467  0.58715943  1
  H  H27  1  0.63396952  0.93642533  0.08715943  1
  H  H28  1  0.68506397  0.34975280  0.62672204  1
  H  H29  1  0.31493603  0.65024720  0.12672204  1
  H  H30  1  0.68506397  0.15024720  0.37327796  1
  H  H31  1  0.31493603  0.84975280  0.87327796  1
  H  H32  1  0.31493603  0.65024720  0.37327796  1
  H  H33  1  0.68506397  0.34975280  0.87327796  1
  H  H34  1  0.31493603  0.84975280  0.62672204  1
  H  H35  1  0.68506397  0.15024720  0.12672204  1
  H  H36  1  0.96757827  0.16885467  0.57970811  1
  H  H37  1  0.03242173  0.83114533  0.07970811  1
  H  H38  1  0.96757827  0.33114533  0.42029189  1
  H  H39  1  0.03242173  0.66885467  0.92029189  1
  H  H40  1  0.03242173  0.83114533  0.42029189  1
  H  H41  1  0.96757827  0.16885467  0.92029189  1
  H  H42  1  0.03242173  0.66885467  0.57970811  1
  H  H43  1  0.96757827  0.33114533  0.07970811  1
  H  H44  1  0.76460596  0.02588604  0.58988670  1
  H  H45  1  0.23539404  0.97411396  0.08988670  1
  H  H46  1  0.76460596  0.47411396  0.41011330  1
  H  H47  1  0.23539404  0.52588604  0.91011330  1
  H  H48  1  0.23539404  0.97411396  0.41011330  1
  H  H49  1  0.76460596  0.02588604  0.91011330  1
  H  H50  1  0.23539404  0.52588604  0.58988670  1
  H  H51  1  0.76460596  0.47411396  0.08988670  1
  Cl  Cl52  1  0.22108217  0.25000000  0.50000000  1
  Cl  Cl53  1  0.77891783  0.75000000  0.00000000  1
  Cl  Cl54  1  0.77891783  0.75000000  0.50000000  1
  Cl  Cl55  1  0.22108217  0.25000000  0.00000000  1
  O  O56  1  0.09104409  0.43844036  0.75000000  1
  O  O57  1  0.90895591  0.56155964  0.25000000  1
  O  O58  1  0.09104409  0.06155964  0.25000000  1
  O  O59  1  0.90895591  0.93844036  0.75000000  1
  O  O60  1  0.40232999  0.18188867  0.75000000  1
  O  O61  1  0.59767001  0.81811133  0.25000000  1
  O  O62  1  0.40232999  0.31811133  0.25000000  1
  O  O63  1  0.59767001  0.68188867  0.75000000  1
  O  O64  1  0.40927489  0.97548378  0.87029400  1
  O  O65  1  0.59072511  0.02451622  0.37029400  1
  O  O66  1  0.40927489  0.52451622  0.12970600  1
  O  O67  1  0.59072511  0.47548378  0.62970600  1
  O  O68  1  0.59072511  0.02451622  0.12970600  1
  O  O69  1  0.40927489  0.97548378  0.62970600  1
  O  O70  1  0.59072511  0.47548378  0.87029400  1
  O  O71  1  0.40927489  0.52451622  0.37029400  1
  O  O72  1  0.15133709  0.63596321  0.88530959  1
  O  O73  1  0.84866291  0.36403679  0.38530959  1
  O  O74  1  0.15133709  0.86403679  0.11469041  1
  O  O75  1  0.84866291  0.13596321  0.61469041  1
  O  O76  1  0.84866291  0.36403679  0.11469041  1
  O  O77  1  0.15133709  0.63596321  0.61469041  1
  O  O78  1  0.84866291  0.13596321  0.88530959  1
  O  O79  1  0.15133709  0.86403679  0.38530959  1
