# generated using pymatgen
data_KEuO2
_symmetry_space_group_name_H-M   'P 1'
_cell_length_a   6.48019709
_cell_length_b   6.48019709
_cell_length_c   6.48019833
_cell_angle_alpha   31.96933382
_cell_angle_beta   31.96933382
_cell_angle_gamma   31.96933360
_symmetry_Int_Tables_number   1
_chemical_formula_structural   KEuO2
_chemical_formula_sum   'K1 Eu1 O2'
_cell_volume   67.77557048
_cell_formula_units_Z   1
loop_
 _symmetry_equiv_pos_site_id
 _symmetry_equiv_pos_as_xyz
  1  'x, y, z'
loop_
 _atom_site_type_symbol
 _atom_site_label
 _atom_site_symmetry_multiplicity
 _atom_site_fract_x
 _atom_site_fract_y
 _atom_site_fract_z
 _atom_site_occupancy
  K  K0  1  0.00000000  0.00000000  0.00000000  1
  Eu  Eu1  1  0.50000000  0.50000000  0.50000000  1
  O  O2  1  0.22963478  0.22963478  0.22963478  1
  O  O3  1  0.77036522  0.77036522  0.77036522  1
