# generated using pymatgen
data_GdIO
_symmetry_space_group_name_H-M   'P 1'
_cell_length_a   7.28368947
_cell_length_b   6.98499366
_cell_length_c   6.98498661
_cell_angle_alpha   109.99544302
_cell_angle_beta   71.60694342
_cell_angle_gamma   71.60687528
_symmetry_Int_Tables_number   1
_chemical_formula_structural   GdIO
_chemical_formula_sum   'Gd4 I4 O4'
_cell_volume   278.88416864
_cell_formula_units_Z   4
loop_
 _symmetry_equiv_pos_site_id
 _symmetry_equiv_pos_as_xyz
  1  'x, y, z'
loop_
 _atom_site_type_symbol
 _atom_site_label
 _atom_site_symmetry_multiplicity
 _atom_site_fract_x
 _atom_site_fract_y
 _atom_site_fract_z
 _atom_site_occupancy
  Gd  Gd0  1  0.25000000  0.97623375  0.02376625  1
  Gd  Gd1  1  0.75000000  0.72623375  0.27376525  1
  Gd  Gd2  1  0.25000000  0.27376625  0.72623475  1
  Gd  Gd3  1  0.75000000  0.02376625  0.97623375  1
  I  I4  1  0.50000000  0.50000000  -0.00000000  1
  I  I5  1  -0.00000000  0.50000000  0.50000000  1
  I  I6  1  0.50000000  0.50000000  0.50000000  1
  I  I7  1  -0.00000000  0.00000000  0.50000000  1
  O  O8  1  0.48291606  0.00854247  0.75854247  1
  O  O9  1  0.01708394  0.24145853  0.99145853  1
  O  O10  1  0.98291606  0.75854147  0.00854147  1
  O  O11  1  0.51708394  0.99145753  0.24145753  1
