# generated using pymatgen
data_HoBO3
_symmetry_space_group_name_H-M   'P 1'
_cell_length_a   6.50529908
_cell_length_b   6.50529908
_cell_length_c   8.78765674
_cell_angle_alpha   90.00000000
_cell_angle_beta   90.00000000
_cell_angle_gamma   120.06810456
_symmetry_Int_Tables_number   1
_chemical_formula_structural   HoBO3
_chemical_formula_sum   'Ho6 B6 O18'
_cell_volume   321.83983833
_cell_formula_units_Z   6
loop_
 _symmetry_equiv_pos_site_id
 _symmetry_equiv_pos_as_xyz
  1  'x, y, z'
loop_
 _atom_site_type_symbol
 _atom_site_label
 _atom_site_symmetry_multiplicity
 _atom_site_fract_x
 _atom_site_fract_y
 _atom_site_fract_z
 _atom_site_occupancy
  Ho  Ho0  1  0.82940143  0.17059857  0.00000000  1
  Ho  Ho1  1  0.82940143  0.17059857  0.50000000  1
  Ho  Ho2  1  0.50000000  0.50000000  0.00000000  1
  Ho  Ho3  1  0.50000000  0.50000000  0.50000000  1
  Ho  Ho4  1  0.17059857  0.82940143  0.50000000  1
  Ho  Ho5  1  0.17059857  0.82940143  0.00000000  1
  B  B6  1  0.83414940  0.59196262  0.25000000  1
  B  B7  1  0.40803738  0.16585060  0.75000000  1
  B  B8  1  0.92287485  0.92287485  0.75000000  1
  B  B9  1  0.07712515  0.07712515  0.25000000  1
  B  B10  1  0.59196262  0.83414940  0.25000000  1
  B  B11  1  0.16585060  0.40803738  0.75000000  1
  O  O12  1  0.83456655  0.05310260  0.25000000  1
  O  O13  1  0.94689740  0.16543345  0.75000000  1
  O  O14  1  0.83362755  0.48215476  0.39243217  1
  O  O15  1  0.83362755  0.48215476  0.10756783  1
  O  O16  1  0.51784524  0.16637245  0.89243217  1
  O  O17  1  0.51784524  0.16637245  0.60756783  1
  O  O18  1  0.81438143  0.81438143  0.60562515  1
  O  O19  1  0.38347483  0.38347483  0.75000000  1
  O  O20  1  0.81438143  0.81438143  0.89437485  1
  O  O21  1  0.18561857  0.18561857  0.10562515  1
  O  O22  1  0.18561857  0.18561857  0.39437485  1
  O  O23  1  0.61652517  0.61652517  0.25000000  1
  O  O24  1  0.48215476  0.83362755  0.10756783  1
  O  O25  1  0.16637245  0.51784524  0.60756783  1
  O  O26  1  0.48215476  0.83362755  0.39243217  1
  O  O27  1  0.16637245  0.51784524  0.89243217  1
  O  O28  1  0.05310260  0.83456655  0.25000000  1
  O  O29  1  0.16543345  0.94689740  0.75000000  1
