# generated using pymatgen
data_CaB2(HO)8
_symmetry_space_group_name_H-M   'P 1'
_cell_length_a   5.63979916
_cell_length_b   7.65353927
_cell_length_c   7.86520078
_cell_angle_alpha   64.90753508
_cell_angle_beta   73.02683741
_cell_angle_gamma   71.33901270
_symmetry_Int_Tables_number   1
_chemical_formula_structural   CaB2(HO)8
_chemical_formula_sum   'Ca2 B4 H16 O16'
_cell_volume   286.42358919
_cell_formula_units_Z   2
loop_
 _symmetry_equiv_pos_site_id
 _symmetry_equiv_pos_as_xyz
  1  'x, y, z'
loop_
 _atom_site_type_symbol
 _atom_site_label
 _atom_site_symmetry_multiplicity
 _atom_site_fract_x
 _atom_site_fract_y
 _atom_site_fract_z
 _atom_site_occupancy
  Ca  Ca0  1  0.14995780  0.23307678  0.82415631  1
  Ca  Ca1  1  0.85004220  0.76692322  0.17584369  1
  B  B2  1  0.82112645  0.03317982  0.76436175  1
  B  B3  1  0.17887355  0.96682018  0.23563825  1
  B  B4  1  0.40927738  0.42568839  0.28617514  1
  B  B5  1  0.59072262  0.57431161  0.71382486  1
  H  H6  1  0.45154510  0.04795724  0.29416222  1
  H  H7  1  0.54845490  0.95204276  0.70583778  1
  H  H8  1  0.62466478  0.20937935  0.92367481  1
  H  H9  1  0.37533522  0.79062065  0.07632519  1
  H  H10  1  0.92003468  0.27559949  0.54460047  1
  H  H11  1  0.07996532  0.72440051  0.45539953  1
  H  H12  1  0.12628331  0.79922620  0.78347289  1
  H  H13  1  0.87371669  0.20077380  0.21652711  1
  H  H14  1  0.58819339  0.15361585  0.44546820  1
  H  H15  1  0.41180661  0.84638415  0.55453180  1
  H  H16  1  0.66735484  0.53532350  0.04881897  1
  H  H17  1  0.33264516  0.46467650  0.95118103  1
  H  H18  1  0.54876837  0.60274443  0.46228493  1
  H  H19  1  0.45123163  0.39725557  0.53771507  1
  H  H20  1  0.85883337  0.64309539  0.79016452  1
  H  H21  1  0.14116663  0.35690461  0.20983548  1
  O  O22  1  0.58432926  0.07442579  0.69756476  1
  O  O23  1  0.41567074  0.92557421  0.30243524  1
  O  O24  1  0.76341782  0.09036225  0.93595898  1
  O  O25  1  0.23658218  0.90963775  0.06404102  1
  O  O26  1  0.00535384  0.14354207  0.61856251  1
  O  O27  1  -0.00535384  0.85645793  0.38143749  1
  O  O28  1  0.05933164  0.17994335  0.16749647  1
  O  O29  1  0.94066836  0.82005665  0.83250353  1
  O  O30  1  0.55637573  0.22127948  0.31383787  1
  O  O31  1  0.44362427  0.77872052  0.68616213  1
  O  O32  1  0.41696278  0.43493074  0.83486124  1
  O  O33  1  0.58303722  0.56506926  0.16513876  1
  O  O34  1  0.30830234  0.45287836  0.47115297  1
  O  O35  1  0.69169766  0.54712164  0.52884703  1
  O  O36  1  0.19808423  0.47572948  0.18752068  1
  O  O37  1  0.80191577  0.52427052  0.81247932  1
