# generated using pymatgen
data_H2
_symmetry_space_group_name_H-M   'P 1'
_cell_length_a   7.17722434
_cell_length_b   7.18692792
_cell_length_c   7.20815403
_cell_angle_alpha   90.00000000
_cell_angle_beta   90.00000000
_cell_angle_gamma   90.00000000
_symmetry_Int_Tables_number   1
_chemical_formula_structural   H2
_chemical_formula_sum   H8
_cell_volume   371.81239954
_cell_formula_units_Z   4
loop_
 _symmetry_equiv_pos_site_id
 _symmetry_equiv_pos_as_xyz
  1  'x, y, z'
loop_
 _atom_site_type_symbol
 _atom_site_label
 _atom_site_symmetry_multiplicity
 _atom_site_fract_x
 _atom_site_fract_y
 _atom_site_fract_z
 _atom_site_occupancy
  H  H0  1  0.36553261  0.72173629  0.64725933  1
  H  H1  1  0.86553261  0.77826371  0.35274067  1
  H  H2  1  0.63446739  0.22173629  0.85274067  1
  H  H3  1  0.13446739  0.27826371  0.14725933  1
  H  H4  1  0.64452235  0.14925896  0.78027071  1
  H  H5  1  0.14452235  0.35074104  0.21972929  1
  H  H6  1  0.35547765  0.64925896  0.71972929  1
  H  H7  1  0.85547765  0.85074104  0.28027071  1
