# generated using pymatgen
data_Sr5U5O19
_symmetry_space_group_name_H-M   'P 1'
_cell_length_a   6.82430696
_cell_length_b   7.70948946
_cell_length_c   8.70107565
_cell_angle_alpha   99.96522426
_cell_angle_beta   97.20257188
_cell_angle_gamma   107.07858977
_symmetry_Int_Tables_number   1
_chemical_formula_structural   Sr5U5O19
_chemical_formula_sum   'Sr5 U5 O19'
_cell_volume   423.37633593
_cell_formula_units_Z   1
loop_
 _symmetry_equiv_pos_site_id
 _symmetry_equiv_pos_as_xyz
  1  'x, y, z'
loop_
 _atom_site_type_symbol
 _atom_site_label
 _atom_site_symmetry_multiplicity
 _atom_site_fract_x
 _atom_site_fract_y
 _atom_site_fract_z
 _atom_site_occupancy
  Sr  Sr0  1  0.80376380  0.10553142  0.60469810  1
  Sr  Sr1  1  0.38432078  0.29418457  0.79659906  1
  Sr  Sr2  1  0.61003560  0.70383347  0.20622544  1
  Sr  Sr3  1  0.99774745  0.49914925  0.99429549  1
  Sr  Sr4  1  0.20146355  0.90173686  0.38939059  1
  U  U5  1  0.78181420  0.59989867  0.60209293  1
  U  U6  1  0.59569573  0.19838469  0.19188544  1
  U  U7  1  0.99778403  0.00215221  0.99901881  1
  U  U8  1  0.41232087  0.80749231  0.81309085  1
  U  U9  1  0.20346982  0.38594208  0.38895086  1
  O  O10  1  0.33926317  0.04191546  0.96353773  1
  O  O11  1  0.43175582  0.97689781  0.66458803  1
  O  O12  1  0.03375646  0.19869713  0.87090971  1
  O  O13  1  0.72895733  0.40338642  0.73007465  1
  O  O14  1  0.16128616  0.19643904  0.52001534  1
  O  O15  1  0.37039628  0.61348179  0.93945763  1
  O  O16  1  0.93686390  0.25444819  0.17907984  1
  O  O17  1  0.93008789  0.41858725  0.46877720  1
  O  O18  1  0.73976557  0.83976645  0.77804392  1
  O  O19  1  0.54605058  0.43258136  0.36877423  1
  O  O20  1  0.39785998  0.57211500  0.61612125  1
  O  O21  1  0.25667853  0.14796743  0.22520548  1
  O  O22  1  0.07743004  0.72891702  0.78269770  1
  O  O23  1  0.63211637  0.38780588  0.06705495  1
  O  O24  1  0.85436448  0.79564646  0.47372433  1
  O  O25  1  0.24682370  0.59522816  0.27864845  1
  O  O26  1  0.96064725  0.79882940  0.11909843  1
  O  O27  1  0.57441939  0.02614145  0.33496266  1
  O  O28  1  0.65697728  0.96048375  0.04122189  1
