# generated using pymatgen
data_Be(CoO2)2
_symmetry_space_group_name_H-M   'P 1'
_cell_length_a   5.42745222
_cell_length_b   5.42745222
_cell_length_c   5.42745222
_cell_angle_alpha   60.00000000
_cell_angle_beta   90.00000000
_cell_angle_gamma   120.00000000
_symmetry_Int_Tables_number   1
_chemical_formula_structural   Be(CoO2)2
_chemical_formula_sum   'Be2 Co4 O8'
_cell_volume   113.05064097
_cell_formula_units_Z   2
loop_
 _symmetry_equiv_pos_site_id
 _symmetry_equiv_pos_as_xyz
  1  'x, y, z'
loop_
 _atom_site_type_symbol
 _atom_site_label
 _atom_site_symmetry_multiplicity
 _atom_site_fract_x
 _atom_site_fract_y
 _atom_site_fract_z
 _atom_site_occupancy
  Be  Be0  1  0.00000000  -0.00000000  0.00000000  1
  Be  Be1  1  0.25000000  0.50000000  0.25000000  1
  Co  Co2  1  0.62500000  0.25000000  0.12500000  1
  Co  Co3  1  0.62500000  0.25000000  0.62500000  1
  Co  Co4  1  0.62500000  0.75000000  0.62500000  1
  Co  Co5  1  0.12500000  0.75000000  0.62500000  1
  O  O6  1  0.86698368  0.24465612  0.37767244  1
  O  O7  1  0.87232756  0.25534388  0.87232756  1
  O  O8  1  0.87232756  0.74465612  0.38301632  1
  O  O9  1  0.37767244  0.24465612  0.37767244  1
  O  O10  1  0.37767244  0.75534388  0.37767244  1
  O  O11  1  0.38301632  0.25534388  0.87232756  1
  O  O12  1  0.87232756  0.74465612  0.87232756  1
  O  O13  1  0.37767244  0.75534388  0.86698368  1
