# generated using pymatgen
data_LuBO3
_symmetry_space_group_name_H-M   'P 1'
_cell_length_a   6.03245183
_cell_length_b   6.03245234
_cell_length_c   6.03245229
_cell_angle_alpha   47.71010856
_cell_angle_beta   47.71011237
_cell_angle_gamma   47.71010333
_symmetry_Int_Tables_number   1
_chemical_formula_structural   LuBO3
_chemical_formula_sum   'Lu2 B2 O6'
_cell_volume   109.98367788
_cell_formula_units_Z   2
loop_
 _symmetry_equiv_pos_site_id
 _symmetry_equiv_pos_as_xyz
  1  'x, y, z'
loop_
 _atom_site_type_symbol
 _atom_site_label
 _atom_site_symmetry_multiplicity
 _atom_site_fract_x
 _atom_site_fract_y
 _atom_site_fract_z
 _atom_site_occupancy
  Lu  Lu0  1  0.50000000  0.50000000  0.50000000  1
  Lu  Lu1  1  0.00000000  0.00000000  -0.00000000  1
  B  B2  1  0.75000000  0.75000000  0.75000000  1
  B  B3  1  0.25000000  0.25000000  0.25000000  1
  O  O4  1  0.75000000  0.03280036  0.46719964  1
  O  O5  1  0.46719964  0.75000000  0.03280036  1
  O  O6  1  0.96719964  0.53280036  0.25000000  1
  O  O7  1  0.25000000  0.96719964  0.53280036  1
  O  O8  1  0.53280036  0.25000000  0.96719964  1
  O  O9  1  0.03280036  0.46719964  0.75000000  1
