# generated using pymatgen
data_SiO2
_symmetry_space_group_name_H-M   'P 1'
_cell_length_a   4.97558882
_cell_length_b   4.97558882
_cell_length_c   6.90088944
_cell_angle_alpha   90.00000000
_cell_angle_beta   90.00000000
_cell_angle_gamma   90.00000000
_symmetry_Int_Tables_number   1
_chemical_formula_structural   SiO2
_chemical_formula_sum   'Si4 O8'
_cell_volume   170.84175974
_cell_formula_units_Z   4
loop_
 _symmetry_equiv_pos_site_id
 _symmetry_equiv_pos_as_xyz
  1  'x, y, z'
loop_
 _atom_site_type_symbol
 _atom_site_label
 _atom_site_symmetry_multiplicity
 _atom_site_fract_x
 _atom_site_fract_y
 _atom_site_fract_z
 _atom_site_occupancy
  Si  Si0  1  0.19675344  0.19675344  -0.00000000  1
  Si  Si1  1  0.30324656  0.69675344  0.75000000  1
  Si  Si2  1  0.69675344  0.30324656  0.25000000  1
  Si  Si3  1  0.80324656  0.80324656  0.50000000  1
  O  O4  1  0.61038707  0.73824237  0.68204156  1
  O  O5  1  0.38961293  0.26175763  0.18204156  1
  O  O6  1  0.73824237  0.61038707  0.31795844  1
  O  O7  1  0.23824237  0.88961293  0.93204156  1
  O  O8  1  0.26175763  0.38961293  0.81795844  1
  O  O9  1  0.11038707  0.76175763  0.56795844  1
  O  O10  1  0.88961293  0.23824237  0.06795844  1
  O  O11  1  0.76175763  0.11038707  0.43204156  1
