# generated using pymatgen
data_H20C3(N2O5)2
_symmetry_space_group_name_H-M   'P 1'
_cell_length_a   9.46756980
_cell_length_b   8.62680523
_cell_length_c   6.31980964
_cell_angle_alpha   76.89302334
_cell_angle_beta   62.55543653
_cell_angle_gamma   40.55154013
_symmetry_Int_Tables_number   1
_chemical_formula_structural   H20C3(N2O5)2
_chemical_formula_sum   'H20 C3 N4 O10'
_cell_volume   290.91740520
_cell_formula_units_Z   1
loop_
 _symmetry_equiv_pos_site_id
 _symmetry_equiv_pos_as_xyz
  1  'x, y, z'
loop_
 _atom_site_type_symbol
 _atom_site_label
 _atom_site_symmetry_multiplicity
 _atom_site_fract_x
 _atom_site_fract_y
 _atom_site_fract_z
 _atom_site_occupancy
  H  H0  1  0.37163470  0.91722519  0.41726523  1
  H  H1  1  0.66065252  0.44019124  0.55980876  1
  H  H2  1  0.90245017  0.78891199  0.21108801  1
  H  H3  1  0.11480405  0.22176309  0.45358214  1
  H  H4  1  0.77823691  0.88519595  0.79014928  1
  H  H5  1  0.09540658  0.05490923  0.62931237  1
  H  H6  1  0.94509077  0.90459342  0.77962918  1
  H  H7  1  0.70612512  0.58273477  0.08277481  1
  H  H8  1  0.32776529  0.48255517  0.17555001  1
  H  H9  1  0.51744483  0.67223471  0.98586946  1
  H  H10  1  0.17555001  0.01413054  0.32776529  1
  H  H11  1  0.98586946  0.82444999  0.51744483  1
  H  H12  1  0.08277481  0.62836530  0.70612512  1
  H  H13  1  0.62931237  0.22037082  0.09540658  1
  H  H14  1  0.77962918  0.37068763  0.94509077  1
  H  H15  1  0.79014928  0.54641786  0.77823691  1
  H  H16  1  0.45358214  0.20985072  0.11480405  1
  H  H17  1  0.21108801  0.09754983  0.90245017  1
  H  H18  1  0.55980876  0.33934748  0.66065252  1
  H  H19  1  0.41726523  0.29387488  0.37163470  1
  C  C20  1  0.06984541  0.93015459  0.06984541  1
  C  C21  1  0.80629579  0.64102868  0.35897132  1
  C  C22  1  0.35897132  0.19370421  0.80629579  1
  N  N23  1  0.19004284  0.05130415  0.45653626  1
  N  N24  1  0.94869585  0.80995716  0.69788326  1
  N  N25  1  0.45653626  0.30211674  0.19004284  1
  N  N26  1  0.69788326  0.54346374  0.94869585  1
  O  O27  1  0.94665960  0.05334040  0.94665960  1
  O  O28  1  0.93789079  0.53428290  0.46571710  1
  O  O29  1  0.66473080  0.33526920  0.66473080  1
  O  O30  1  0.67954166  0.62355106  0.37644894  1
  O  O31  1  0.79568354  0.78642212  0.21357788  1
  O  O32  1  0.20242524  0.93893647  0.06106353  1
  O  O33  1  0.46571710  0.06210921  0.93789079  1
  O  O34  1  0.21357788  0.20431646  0.79568354  1
  O  O35  1  0.37644894  0.32045834  0.67954166  1
  O  O36  1  0.06106353  0.79757476  0.20242524  1
