# generated using pymatgen
data_CaH8(ClO2)2
_symmetry_space_group_name_H-M   'P 1'
_cell_length_a   6.26891497
_cell_length_b   6.55607724
_cell_length_c   8.27287508
_cell_angle_alpha   93.53441104
_cell_angle_beta   96.22496039
_cell_angle_gamma   110.55544215
_symmetry_Int_Tables_number   1
_chemical_formula_structural   CaH8(ClO2)2
_chemical_formula_sum   'Ca2 H16 Cl4 O8'
_cell_volume   314.66485242
_cell_formula_units_Z   2
loop_
 _symmetry_equiv_pos_site_id
 _symmetry_equiv_pos_as_xyz
  1  'x, y, z'
loop_
 _atom_site_type_symbol
 _atom_site_label
 _atom_site_symmetry_multiplicity
 _atom_site_fract_x
 _atom_site_fract_y
 _atom_site_fract_z
 _atom_site_occupancy
  Ca  Ca0  1  0.99563850  0.11904568  0.25548972  1
  Ca  Ca1  1  0.00436059  0.88095075  0.74450929  1
  H  H2  1  0.81093769  0.67649199  0.06676080  1
  H  H3  1  0.18905859  0.32350750  0.93324283  1
  H  H4  1  0.65074594  0.79200901  0.99799005  1
  H  H5  1  0.34925388  0.20799292  0.00201030  1
  H  H6  1  0.45736071  0.07776430  0.32930251  1
  H  H7  1  0.54264298  0.92223911  0.67069818  1
  H  H8  1  0.31507675  0.90179085  0.18149282  1
  H  H9  1  0.68492549  0.09821197  0.81850521  1
  H  H10  1  0.40774143  0.54702282  0.32506629  1
  H  H11  1  0.59225666  0.45297573  0.67493077  1
  H  H12  1  0.24840665  0.55290227  0.16965915  1
  H  H13  1  0.75158542  0.44709697  0.83034006  1
  H  H14  1  0.75866012  0.38756123  0.41983600  1
  H  H15  1  0.24134975  0.61244005  0.58016367  1
  H  H16  1  0.75184343  0.20130928  0.53210865  1
  H  H17  1  0.24815747  0.79868976  0.46789131  1
  Cl  Cl18  1  0.71736415  0.29232959  0.04819901  1
  Cl  Cl19  1  0.28263529  0.70766886  0.95180216  1
  Cl  Cl20  1  0.76453127  0.74000203  0.40811844  1
  Cl  Cl21  1  0.23546828  0.25999615  0.59188364  1
  O  O22  1  0.81424957  0.81599942  0.02953321  1
  O  O23  1  0.18574986  0.18399875  0.97046609  1
  O  O24  1  0.30029166  0.97856540  0.28252718  1
  O  O25  1  0.69971314  0.02143423  0.71747244  1
  O  O26  1  0.24825477  0.48385415  0.27109250  1
  O  O27  1  0.75174106  0.51614835  0.72890807  1
  O  O28  1  0.73710077  0.23209703  0.41782161  1
  O  O29  1  0.26289816  0.76790282  0.58217804  1
