# generated using pymatgen
data_Tm(ClO4)3
_symmetry_space_group_name_H-M   'P 1'
_cell_length_a   9.25774882
_cell_length_b   9.25774882
_cell_length_c   9.25775026
_cell_angle_alpha   51.80933479
_cell_angle_beta   51.80933479
_cell_angle_gamma   51.80933314
_symmetry_Int_Tables_number   1
_chemical_formula_structural   Tm(ClO4)3
_chemical_formula_sum   'Tm2 Cl6 O24'
_cell_volume   452.95087164
_cell_formula_units_Z   2
loop_
 _symmetry_equiv_pos_site_id
 _symmetry_equiv_pos_as_xyz
  1  'x, y, z'
loop_
 _atom_site_type_symbol
 _atom_site_label
 _atom_site_symmetry_multiplicity
 _atom_site_fract_x
 _atom_site_fract_y
 _atom_site_fract_z
 _atom_site_occupancy
  Tm  Tm0  1  0.94118965  0.94118965  0.94118965  1
  Tm  Tm1  1  0.44118965  0.44118965  0.44118965  1
  Cl  Cl2  1  0.53437412  0.15760043  0.80769136  1
  Cl  Cl3  1  0.80769136  0.53437412  0.15760043  1
  Cl  Cl4  1  0.65760043  0.03437412  0.30769136  1
  Cl  Cl5  1  0.15760043  0.80769136  0.53437412  1
  Cl  Cl6  1  0.03437412  0.30769136  0.65760043  1
  Cl  Cl7  1  0.30769136  0.65760043  0.03437412  1
  O  O8  1  0.92090249  0.24651174  0.87256847  1
  O  O9  1  0.87256847  0.92090249  0.24651174  1
  O  O10  1  0.72083456  0.11750670  0.79315268  1
  O  O11  1  0.99878363  0.42813832  0.05070651  1
  O  O12  1  0.58178815  0.11182098  0.65391919  1
  O  O13  1  0.92813832  0.49878363  0.55070651  1
  O  O14  1  0.61750670  0.22083456  0.29315268  1
  O  O15  1  0.24651174  0.87256847  0.92090249  1
  O  O16  1  0.42813832  0.05070651  0.99878363  1
  O  O17  1  0.74651174  0.42090249  0.37256847  1
  O  O18  1  0.79315268  0.72083456  0.11750670  1
  O  O19  1  0.65391919  0.58178815  0.11182098  1
  O  O20  1  0.42090249  0.37256847  0.74651174  1
  O  O21  1  0.49878363  0.55070651  0.92813832  1
  O  O22  1  0.22083456  0.29315268  0.61750670  1
  O  O23  1  0.29315268  0.61750670  0.22083456  1
  O  O24  1  0.55070651  0.92813832  0.49878363  1
  O  O25  1  0.37256847  0.74651174  0.42090249  1
  O  O26  1  0.61182098  0.08178815  0.15391919  1
  O  O27  1  0.11182098  0.65391919  0.58178815  1
  O  O28  1  0.11750670  0.79315268  0.72083456  1
  O  O29  1  0.05070651  0.99878363  0.42813832  1
  O  O30  1  0.08178815  0.15391919  0.61182098  1
  O  O31  1  0.15391919  0.61182098  0.08178815  1
