# generated using pymatgen
data_Na2H2CO4
_symmetry_space_group_name_H-M   'P 1'
_cell_length_a   5.19616920
_cell_length_b   6.29859218
_cell_length_c   10.66721109
_cell_angle_alpha   90.00000000
_cell_angle_beta   90.00000000
_cell_angle_gamma   90.00000000
_symmetry_Int_Tables_number   1
_chemical_formula_structural   Na2H2CO4
_chemical_formula_sum   'Na8 H8 C4 O16'
_cell_volume   349.12235861
_cell_formula_units_Z   4
loop_
 _symmetry_equiv_pos_site_id
 _symmetry_equiv_pos_as_xyz
  1  'x, y, z'
loop_
 _atom_site_type_symbol
 _atom_site_label
 _atom_site_symmetry_multiplicity
 _atom_site_fract_x
 _atom_site_fract_y
 _atom_site_fract_z
 _atom_site_occupancy
  Na  Na0  1  0.85251095  0.99190826  0.69020283  1
  Na  Na1  1  0.14748905  0.49190826  0.30979717  1
  Na  Na2  1  0.85251095  0.49190826  0.80979717  1
  Na  Na3  1  0.14748905  0.99190826  0.19020283  1
  Na  Na4  1  0.36751546  0.07091160  0.50248740  1
  Na  Na5  1  0.63248454  0.57091160  0.49751260  1
  Na  Na6  1  0.36751546  0.57091160  0.99751260  1
  Na  Na7  1  0.63248454  0.07091160  0.00248740  1
  H  H8  1  0.81890378  0.14931612  0.43599520  1
  H  H9  1  0.18109622  0.64931612  0.56400480  1
  H  H10  1  0.81890378  0.64931612  0.06400480  1
  H  H11  1  0.18109622  0.14931612  0.93599520  1
  H  H12  1  0.90025759  0.91743837  0.40877673  1
  H  H13  1  0.09974241  0.41743837  0.59122327  1
  H  H14  1  0.90025759  0.41743837  0.09122327  1
  H  H15  1  0.09974241  0.91743837  0.90877673  1
  C  C16  1  0.39080119  0.78514883  0.75549300  1
  C  C17  1  0.60919881  0.28514883  0.24450700  1
  C  C18  1  0.39080119  0.28514883  0.74450700  1
  C  C19  1  0.60919881  0.78514883  0.25549300  1
  O  O20  1  0.44300510  0.79824659  0.63675697  1
  O  O21  1  0.55699490  0.29824659  0.36324303  1
  O  O22  1  0.44300510  0.29824659  0.86324303  1
  O  O23  1  0.55699490  0.79824659  0.13675697  1
  O  O24  1  0.57296949  0.80048144  0.83696270  1
  O  O25  1  0.42703051  0.30048144  0.16303730  1
  O  O26  1  0.57296949  0.30048144  0.66303730  1
  O  O27  1  0.42703051  0.80048144  0.33696270  1
  O  O28  1  0.15503666  0.75668005  0.79095749  1
  O  O29  1  0.84496334  0.25668005  0.20904251  1
  O  O30  1  0.15503666  0.25668005  0.70904251  1
  O  O31  1  0.84496334  0.75668005  0.29095749  1
  O  O32  1  0.92392814  0.03366873  0.47135797  1
  O  O33  1  0.07607186  0.53366873  0.52864203  1
  O  O34  1  0.92392814  0.53366873  0.02864203  1
  O  O35  1  0.07607186  0.03366873  0.97135797  1
