# generated using pymatgen
data_CdAs
_symmetry_space_group_name_H-M   'P 1'
_cell_length_a   6.03383359
_cell_length_b   7.87324139
_cell_length_c   8.09276315
_cell_angle_alpha   90.00000000
_cell_angle_beta   90.00000000
_cell_angle_gamma   90.00000000
_symmetry_Int_Tables_number   1
_chemical_formula_structural   CdAs
_chemical_formula_sum   'Cd8 As8'
_cell_volume   384.45341717
_cell_formula_units_Z   8
loop_
 _symmetry_equiv_pos_site_id
 _symmetry_equiv_pos_as_xyz
  1  'x, y, z'
loop_
 _atom_site_type_symbol
 _atom_site_label
 _atom_site_symmetry_multiplicity
 _atom_site_fract_x
 _atom_site_fract_y
 _atom_site_fract_z
 _atom_site_occupancy
  Cd  Cd0  1  0.04660686  0.63003710  0.86199275  1
  Cd  Cd1  1  0.54660686  0.86996290  0.13800725  1
  Cd  Cd2  1  0.95339314  0.13003710  0.63800725  1
  Cd  Cd3  1  0.45339314  0.36996290  0.36199275  1
  Cd  Cd4  1  0.95339314  0.36996290  0.13800725  1
  Cd  Cd5  1  0.45339314  0.13003710  0.86199275  1
  Cd  Cd6  1  0.04660686  0.86996290  0.36199275  1
  Cd  Cd7  1  0.54660686  0.63003710  0.63800725  1
  As  As8  1  0.63248535  0.06515367  0.40461464  1
  As  As9  1  0.13248535  0.43484633  0.59538536  1
  As  As10  1  0.36751465  0.56515367  0.09538536  1
  As  As11  1  0.86751465  0.93484633  0.90461464  1
  As  As12  1  0.36751465  0.93484633  0.59538536  1
  As  As13  1  0.86751465  0.56515367  0.40461464  1
  As  As14  1  0.63248535  0.43484633  0.90461464  1
  As  As15  1  0.13248535  0.06515367  0.09538536  1
