# generated using pymatgen
data_Pr2TlCd
_symmetry_space_group_name_H-M   'P 1'
_cell_length_a   5.51501634
_cell_length_b   5.51501841
_cell_length_c   5.51501649
_cell_angle_alpha   59.99998210
_cell_angle_beta   59.99999275
_cell_angle_gamma   59.99994796
_symmetry_Int_Tables_number   1
_chemical_formula_structural   Pr2TlCd
_chemical_formula_sum   'Pr2 Tl1 Cd1'
_cell_volume   118.61109995
_cell_formula_units_Z   1
loop_
 _symmetry_equiv_pos_site_id
 _symmetry_equiv_pos_as_xyz
  1  'x, y, z'
loop_
 _atom_site_type_symbol
 _atom_site_label
 _atom_site_symmetry_multiplicity
 _atom_site_fract_x
 _atom_site_fract_y
 _atom_site_fract_z
 _atom_site_occupancy
  Pr  Pr0  1  -0.00000000  -0.00000000  -0.00000000  1
  Pr  Pr1  1  0.50000078  0.50000078  0.50000078  1
  Tl  Tl2  1  0.74999924  0.74999924  0.74999924  1
  Cd  Cd3  1  0.24999998  0.24999998  0.24999998  1
