# generated using pymatgen
data_Lu2MgGe2
_symmetry_space_group_name_H-M   'P 1'
_cell_length_a   7.10267296
_cell_length_b   7.10267296
_cell_length_c   4.13220235
_cell_angle_alpha   90.00000000
_cell_angle_beta   90.00000000
_cell_angle_gamma   90.00000000
_symmetry_Int_Tables_number   1
_chemical_formula_structural   Lu2MgGe2
_chemical_formula_sum   'Lu4 Mg2 Ge4'
_cell_volume   208.46119199
_cell_formula_units_Z   2
loop_
 _symmetry_equiv_pos_site_id
 _symmetry_equiv_pos_as_xyz
  1  'x, y, z'
loop_
 _atom_site_type_symbol
 _atom_site_label
 _atom_site_symmetry_multiplicity
 _atom_site_fract_x
 _atom_site_fract_y
 _atom_site_fract_z
 _atom_site_occupancy
  Lu  Lu0  1  0.32319501  0.17680499  0.50000100  1
  Lu  Lu1  1  0.82319501  0.32319501  0.50000100  1
  Lu  Lu2  1  0.17680499  0.67680399  0.50000100  1
  Lu  Lu3  1  0.67680399  0.82319501  0.50000100  1
  Mg  Mg4  1  0.00000000  -0.00000000  -0.00000000  1
  Mg  Mg5  1  0.50000000  0.50000000  -0.00000000  1
  Ge  Ge6  1  0.62497552  0.12497652  0.00000000  1
  Ge  Ge7  1  0.12497652  0.37502348  0.00000000  1
  Ge  Ge8  1  0.87502348  0.62497552  0.00000000  1
  Ge  Ge9  1  0.37502348  0.87502348  0.00000000  1
