# generated using pymatgen
data_YTe
_symmetry_space_group_name_H-M   'P 1'
_cell_length_a   4.10909513
_cell_length_b   4.10909257
_cell_length_c   4.06166601
_cell_angle_alpha   90.00000000
_cell_angle_beta   90.00000000
_cell_angle_gamma   120.00010586
_symmetry_Int_Tables_number   1
_chemical_formula_structural   YTe
_chemical_formula_sum   'Y1 Te1'
_cell_volume   59.39180147
_cell_formula_units_Z   1
loop_
 _symmetry_equiv_pos_site_id
 _symmetry_equiv_pos_as_xyz
  1  'x, y, z'
loop_
 _atom_site_type_symbol
 _atom_site_label
 _atom_site_symmetry_multiplicity
 _atom_site_fract_x
 _atom_site_fract_y
 _atom_site_fract_z
 _atom_site_occupancy
  Y  Y0  1  0.33333400  0.66666700  0.25000000  1
  Te  Te1  1  0.66666900  0.33333500  0.74999900  1
