# generated using pymatgen
data_Na3CoO3
_symmetry_space_group_name_H-M   'P 1'
_cell_length_a   4.69734008
_cell_length_b   9.51136346
_cell_length_c   8.39949844
_cell_angle_alpha   90.00052760
_cell_angle_beta   89.99995417
_cell_angle_gamma   89.99997217
_symmetry_Int_Tables_number   1
_chemical_formula_structural   Na3CoO3
_chemical_formula_sum   'Na12 Co4 O12'
_cell_volume   375.27370513
_cell_formula_units_Z   4
loop_
 _symmetry_equiv_pos_site_id
 _symmetry_equiv_pos_as_xyz
  1  'x, y, z'
loop_
 _atom_site_type_symbol
 _atom_site_label
 _atom_site_symmetry_multiplicity
 _atom_site_fract_x
 _atom_site_fract_y
 _atom_site_fract_z
 _atom_site_occupancy
  Na  Na0  1  0.24999962  0.60474993  0.00002290  1
  Na  Na1  1  0.25000021  0.10475155  0.50000879  1
  Na  Na2  1  0.74999962  0.39524545  0.00000465  1
  Na  Na3  1  0.74999994  0.89524553  0.49999405  1
  Na  Na4  1  0.25000071  0.37998918  0.27056711  1
  Na  Na5  1  0.24999852  0.87997788  0.77055548  1
  Na  Na6  1  0.74999963  0.62001236  0.27057365  1
  Na  Na7  1  0.75000071  0.12000662  0.77055390  1
  Na  Na8  1  0.25000070  0.37998145  0.72944758  1
  Na  Na9  1  0.24999892  0.87997334  0.22943515  1
  Na  Na10  1  0.75000005  0.62002719  0.72943773  1
  Na  Na11  1  0.74999988  0.12000823  0.22943061  1
  Co  Co12  1  0.24999975  0.68041070  0.49999580  1
  Co  Co13  1  0.74999902  0.81960216  0.00000651  1
  Co  Co14  1  0.24999947  0.18038989  -0.00001209  1
  Co  Co15  1  0.75000162  0.31961414  0.49999996  1
  O  O16  1  0.24999848  0.36546251  0.00000752  1
  O  O17  1  0.25000050  0.86546738  0.50000216  1
  O  O18  1  0.74999978  0.63453713  0.00001360  1
  O  O19  1  0.75000070  0.13453642  0.49999431  1
  O  O20  1  0.75000306  0.37056489  0.30414368  1
  O  O21  1  0.75000014  0.87053895  0.80415831  1
  O  O22  1  0.24999992  0.62945406  0.30415968  1
  O  O23  1  0.25000014  0.12942997  0.80412419  1
  O  O24  1  0.25000001  0.62945516  0.69583522  1
  O  O25  1  0.24999963  0.12943474  0.19583415  1
  O  O26  1  0.75000124  0.37057795  0.69586268  1
  O  O27  1  0.74999904  0.87055623  0.19584170  1
