# generated using pymatgen
data_NaEuTl2
_symmetry_space_group_name_H-M   'P 1'
_cell_length_a   5.44253327
_cell_length_b   5.44253202
_cell_length_c   5.44184713
_cell_angle_alpha   60.00157655
_cell_angle_beta   60.00788203
_cell_angle_gamma   59.99087172
_symmetry_Int_Tables_number   1
_chemical_formula_structural   NaEuTl2
_chemical_formula_sum   'Na1 Eu1 Tl2'
_cell_volume   113.98153181
_cell_formula_units_Z   1
loop_
 _symmetry_equiv_pos_site_id
 _symmetry_equiv_pos_as_xyz
  1  'x, y, z'
loop_
 _atom_site_type_symbol
 _atom_site_label
 _atom_site_symmetry_multiplicity
 _atom_site_fract_x
 _atom_site_fract_y
 _atom_site_fract_z
 _atom_site_occupancy
  Na  Na0  1  0.75000058  0.75000572  0.74999349  1
  Eu  Eu1  1  0.24999960  0.24999543  0.25000611  1
  Tl  Tl2  1  0.99998656  0.00001901  0.00000055  1
  Tl  Tl3  1  0.50001126  0.49997985  0.50000084  1
