# generated using pymatgen
data_KTiF4
_symmetry_space_group_name_H-M   'P 1'
_cell_length_a   7.64954955
_cell_length_b   7.64954955
_cell_length_c   4.04063503
_cell_angle_alpha   75.17293268
_cell_angle_beta   75.17293268
_cell_angle_gamma   66.50207434
_symmetry_Int_Tables_number   1
_chemical_formula_structural   KTiF4
_chemical_formula_sum   'K2 Ti2 F8'
_cell_volume   206.43196860
_cell_formula_units_Z   2
loop_
 _symmetry_equiv_pos_site_id
 _symmetry_equiv_pos_as_xyz
  1  'x, y, z'
loop_
 _atom_site_type_symbol
 _atom_site_label
 _atom_site_symmetry_multiplicity
 _atom_site_fract_x
 _atom_site_fract_y
 _atom_site_fract_z
 _atom_site_occupancy
  K  K0  1  0.31109251  0.31109251  0.68359881  1
  K  K1  1  0.68890749  0.68890749  0.31640119  1
  Ti  Ti2  1  0.80620439  0.19379561  -0.00000000  1
  Ti  Ti3  1  0.19379561  0.80620439  -0.00000000  1
  F  F4  1  0.89827486  0.89827486  0.09811674  1
  F  F5  1  0.81003162  0.44857533  0.87418540  1
  F  F6  1  0.44857533  0.81003162  0.87418540  1
  F  F7  1  0.79430400  0.20569600  0.50000000  1
  F  F8  1  0.20569600  0.79430400  0.50000000  1
  F  F9  1  0.55142467  0.18996838  0.12581460  1
  F  F10  1  0.18996838  0.55142467  0.12581460  1
  F  F11  1  0.10172514  0.10172514  0.90188326  1
