# generated using pymatgen
data_Tl(CuS)2
_symmetry_space_group_name_H-M   'P 1'
_cell_length_a   3.75982042
_cell_length_b   3.75982063
_cell_length_c   7.28039540
_cell_angle_alpha   104.96419417
_cell_angle_beta   104.96419528
_cell_angle_gamma   90.00000639
_symmetry_Int_Tables_number   1
_chemical_formula_structural   Tl(CuS)2
_chemical_formula_sum   'Tl1 Cu2 S2'
_cell_volume   95.81002947
_cell_formula_units_Z   1
loop_
 _symmetry_equiv_pos_site_id
 _symmetry_equiv_pos_as_xyz
  1  'x, y, z'
loop_
 _atom_site_type_symbol
 _atom_site_label
 _atom_site_symmetry_multiplicity
 _atom_site_fract_x
 _atom_site_fract_y
 _atom_site_fract_z
 _atom_site_occupancy
  Tl  Tl0  1  0.00000000  0.00000000  -0.00000000  1
  Cu  Cu1  1  0.25000000  0.75000000  0.50000000  1
  Cu  Cu2  1  0.75000000  0.25000000  0.50000000  1
  S  S3  1  0.64798857  0.64798857  0.29597914  1
  S  S4  1  0.35201143  0.35201143  0.70402086  1
