# generated using pymatgen
data_TiZnCo2
_symmetry_space_group_name_H-M   'P 1'
_cell_length_a   4.06701693
_cell_length_b   4.06701693
_cell_length_c   4.06701693
_cell_angle_alpha   59.93143572
_cell_angle_beta   59.93143572
_cell_angle_gamma   59.93143572
_symmetry_Int_Tables_number   1
_chemical_formula_structural   TiZnCo2
_chemical_formula_sum   'Ti1 Zn1 Co2'
_cell_volume   47.49380954
_cell_formula_units_Z   1
loop_
 _symmetry_equiv_pos_site_id
 _symmetry_equiv_pos_as_xyz
  1  'x, y, z'
loop_
 _atom_site_type_symbol
 _atom_site_label
 _atom_site_symmetry_multiplicity
 _atom_site_fract_x
 _atom_site_fract_y
 _atom_site_fract_z
 _atom_site_occupancy
  Ti  Ti0  1  0.24999900  0.24999900  0.24999900  1
  Zn  Zn1  1  0.74999800  0.74999800  0.74999800  1
  Co  Co2  1  0.49990858  0.49990858  0.49990858  1
  Co  Co3  1  0.00009442  0.00009442  0.00009442  1
