# generated using pymatgen
data_Gd4Ni13C4
_symmetry_space_group_name_H-M   'P 1'
_cell_length_a   8.35476846
_cell_length_b   8.35479248
_cell_length_c   3.86306743
_cell_angle_alpha   90.00000476
_cell_angle_beta   90.00000240
_cell_angle_gamma   91.12231611
_symmetry_Int_Tables_number   1
_chemical_formula_structural   Gd4Ni13C4
_chemical_formula_sum   'Gd4 Ni13 C4'
_cell_volume   269.59948051
_cell_formula_units_Z   1
loop_
 _symmetry_equiv_pos_site_id
 _symmetry_equiv_pos_as_xyz
  1  'x, y, z'
loop_
 _atom_site_type_symbol
 _atom_site_label
 _atom_site_symmetry_multiplicity
 _atom_site_fract_x
 _atom_site_fract_y
 _atom_site_fract_z
 _atom_site_occupancy
  Gd  Gd0  1  0.31161726  0.68832612  -0.00000013  1
  Gd  Gd1  1  0.68835642  0.31164426  0.00000017  1
  Gd  Gd2  1  0.84701037  0.84697516  -0.00000017  1
  Gd  Gd3  1  0.15300238  0.15303792  0.00000020  1
  Ni  Ni4  1  0.49997072  0.49996956  0.50000020  1
  Ni  Ni5  1  0.71530109  0.06879161  0.49999979  1
  Ni  Ni6  1  0.28471047  0.93124652  0.49999995  1
  Ni  Ni7  1  0.93126210  0.28473288  0.50000000  1
  Ni  Ni8  1  0.06877934  0.71527991  0.49999984  1
  Ni  Ni9  1  0.49995000  0.00008272  -0.00000007  1
  Ni  Ni10  1  0.00007761  0.49995780  0.00000000  1
  Ni  Ni11  1  0.57352935  0.79008590  0.49999993  1
  Ni  Ni12  1  0.42641344  0.20993109  0.50000022  1
  Ni  Ni13  1  0.20992252  0.42643182  0.50000030  1
  Ni  Ni14  1  0.79009832  0.57351268  0.49999984  1
  Ni  Ni15  1  0.62242719  0.62239044  -0.00000027  1
  Ni  Ni16  1  0.37751522  0.37754883  0.00000003  1
  C  C17  1  0.50000259  0.00003411  0.50000012  1
  C  C18  1  0.00003766  0.50000255  0.50000002  1
  C  C19  1  0.94303502  0.05698982  0.50000002  1
  C  C20  1  0.05697996  0.94302629  0.50000001  1
