# generated using pymatgen
data_UGaTc2
_symmetry_space_group_name_H-M   'P 1'
_cell_length_a   4.54203515
_cell_length_b   4.54835884
_cell_length_c   4.54877248
_cell_angle_alpha   60.12720072
_cell_angle_beta   59.85146681
_cell_angle_gamma   59.98651795
_symmetry_Int_Tables_number   1
_chemical_formula_structural   UGaTc2
_chemical_formula_sum   'U1 Ga1 Tc2'
_cell_volume   66.43013058
_cell_formula_units_Z   1
loop_
 _symmetry_equiv_pos_site_id
 _symmetry_equiv_pos_as_xyz
  1  'x, y, z'
loop_
 _atom_site_type_symbol
 _atom_site_label
 _atom_site_symmetry_multiplicity
 _atom_site_fract_x
 _atom_site_fract_y
 _atom_site_fract_z
 _atom_site_occupancy
  U  U0  1  0.75000194  0.74999826  0.74999803  1
  Ga  Ga1  1  0.25000194  0.25000061  0.24999502  1
  Tc  Tc2  1  0.49749211  0.50189232  0.50035625  1
  Tc  Tc3  1  0.00250401  0.99810781  0.99964970  1
