# generated using pymatgen
data_Lu4Ni13C4
_symmetry_space_group_name_H-M   'P 1'
_cell_length_a   8.25785320
_cell_length_b   8.25785320
_cell_length_c   3.78000839
_cell_angle_alpha   90.00000000
_cell_angle_beta   90.00000000
_cell_angle_gamma   91.38981191
_symmetry_Int_Tables_number   1
_chemical_formula_structural   Lu4Ni13C4
_chemical_formula_sum   'Lu4 Ni13 C4'
_cell_volume   257.69102909
_cell_formula_units_Z   1
loop_
 _symmetry_equiv_pos_site_id
 _symmetry_equiv_pos_as_xyz
  1  'x, y, z'
loop_
 _atom_site_type_symbol
 _atom_site_label
 _atom_site_symmetry_multiplicity
 _atom_site_fract_x
 _atom_site_fract_y
 _atom_site_fract_z
 _atom_site_occupancy
  Lu  Lu0  1  0.31382798  0.68617202  -0.00000000  1
  Lu  Lu1  1  0.68617202  0.31382798  -0.00000000  1
  Lu  Lu2  1  0.84781802  0.84781802  -0.00000000  1
  Lu  Lu3  1  0.15218198  0.15218198  -0.00000000  1
  Ni  Ni4  1  0.50000000  0.50000000  0.50000000  1
  Ni  Ni5  1  0.71533880  0.07091844  0.50000000  1
  Ni  Ni6  1  0.28466120  0.92908156  0.50000000  1
  Ni  Ni7  1  0.92908156  0.28466120  0.50000000  1
  Ni  Ni8  1  0.07091844  0.71533880  0.50000000  1
  Ni  Ni9  1  0.50000000  0.00000000  -0.00000000  1
  Ni  Ni10  1  -0.00000000  0.50000000  -0.00000000  1
  Ni  Ni11  1  0.57562058  0.79064745  0.50000000  1
  Ni  Ni12  1  0.42437942  0.20935255  0.50000000  1
  Ni  Ni13  1  0.20935255  0.42437942  0.50000000  1
  Ni  Ni14  1  0.79064745  0.57562058  0.50000000  1
  Ni  Ni15  1  0.62341223  0.62341223  -0.00000000  1
  Ni  Ni16  1  0.37658777  0.37658777  0.00000000  1
  C  C17  1  0.50000000  0.00000000  0.50000000  1
  C  C18  1  -0.00000000  0.50000000  0.50000000  1
  C  C19  1  0.94263413  0.05736587  0.50000000  1
  C  C20  1  0.05736587  0.94263413  0.50000000  1
