# generated using pymatgen
data_ThSnRu2
_symmetry_space_group_name_H-M   'P 1'
_cell_length_a   4.79166002
_cell_length_b   4.79166437
_cell_length_c   4.79166510
_cell_angle_alpha   60.00000503
_cell_angle_beta   60.00012526
_cell_angle_gamma   59.99996988
_symmetry_Int_Tables_number   1
_chemical_formula_structural   ThSnRu2
_chemical_formula_sum   'Th1 Sn1 Ru2'
_cell_volume   77.79365465
_cell_formula_units_Z   1
loop_
 _symmetry_equiv_pos_site_id
 _symmetry_equiv_pos_as_xyz
  1  'x, y, z'
loop_
 _atom_site_type_symbol
 _atom_site_label
 _atom_site_symmetry_multiplicity
 _atom_site_fract_x
 _atom_site_fract_y
 _atom_site_fract_z
 _atom_site_occupancy
  Th  Th0  1  0.75000000  0.75000000  0.74999900  1
  Sn  Sn1  1  0.24999900  0.24999900  0.24999900  1
  Ru  Ru2  1  -0.00000000  0.00000000  0.00000000  1
  Ru  Ru3  1  0.50000100  0.50000000  0.50000100  1
