# generated using pymatgen
data_Sc2TcAg
_symmetry_space_group_name_H-M   'P 1'
_cell_length_a   4.67354195
_cell_length_b   4.67356997
_cell_length_c   4.67177951
_cell_angle_alpha   60.01216644
_cell_angle_beta   60.01288836
_cell_angle_gamma   60.00867052
_symmetry_Int_Tables_number   1
_chemical_formula_structural   Sc2TcAg
_chemical_formula_sum   'Sc2 Tc1 Ag1'
_cell_volume   72.17269189
_cell_formula_units_Z   1
loop_
 _symmetry_equiv_pos_site_id
 _symmetry_equiv_pos_as_xyz
  1  'x, y, z'
loop_
 _atom_site_type_symbol
 _atom_site_label
 _atom_site_symmetry_multiplicity
 _atom_site_fract_x
 _atom_site_fract_y
 _atom_site_fract_z
 _atom_site_occupancy
  Sc  Sc0  1  0.99996014  0.99995852  0.00004056  1
  Sc  Sc1  1  0.50004230  0.50003978  0.49995861  1
  Tc  Tc2  1  0.75000100  0.74999820  0.74999826  1
  Ag  Ag3  1  0.24999855  0.25000149  0.25000158  1
