# generated using pymatgen
data_Th(SiTc)2
_symmetry_space_group_name_H-M   'P 1'
_cell_length_a   4.27742292
_cell_length_b   4.27742212
_cell_length_c   5.72258725
_cell_angle_alpha   111.94594371
_cell_angle_beta   111.94593807
_cell_angle_gamma   89.99999566
_symmetry_Int_Tables_number   1
_chemical_formula_structural   Th(SiTc)2
_chemical_formula_sum   'Th1 Si2 Tc2'
_cell_volume   88.88300570
_cell_formula_units_Z   1
loop_
 _symmetry_equiv_pos_site_id
 _symmetry_equiv_pos_as_xyz
  1  'x, y, z'
loop_
 _atom_site_type_symbol
 _atom_site_label
 _atom_site_symmetry_multiplicity
 _atom_site_fract_x
 _atom_site_fract_y
 _atom_site_fract_z
 _atom_site_occupancy
  Th  Th0  1  -0.00000000  -0.00000000  0.00000000  1
  Si  Si1  1  0.63352559  0.63352559  0.26705118  1
  Si  Si2  1  0.36647441  0.36647441  0.73294882  1
  Tc  Tc3  1  0.75000000  0.25000000  0.50000000  1
  Tc  Tc4  1  0.25000000  0.75000000  0.50000000  1
