# generated using pymatgen
data_YbGaPt
_symmetry_space_group_name_H-M   'P 1'
_cell_length_a   4.37015154
_cell_length_b   6.77536117
_cell_length_c   7.56136736
_cell_angle_alpha   90.00000000
_cell_angle_beta   90.00000000
_cell_angle_gamma   90.00000000
_symmetry_Int_Tables_number   1
_chemical_formula_structural   YbGaPt
_chemical_formula_sum   'Yb4 Ga4 Pt4'
_cell_volume   223.88721067
_cell_formula_units_Z   4
loop_
 _symmetry_equiv_pos_site_id
 _symmetry_equiv_pos_as_xyz
  1  'x, y, z'
loop_
 _atom_site_type_symbol
 _atom_site_label
 _atom_site_symmetry_multiplicity
 _atom_site_fract_x
 _atom_site_fract_y
 _atom_site_fract_z
 _atom_site_occupancy
  Yb  Yb0  1  0.25000000  0.98850055  0.29987836  1
  Yb  Yb1  1  0.25000000  0.48850055  0.20012164  1
  Yb  Yb2  1  0.75000000  0.01149945  0.70012164  1
  Yb  Yb3  1  0.75000000  0.51149945  0.79987836  1
  Ga  Ga4  1  0.25000000  0.32413522  0.57743786  1
  Ga  Ga5  1  0.25000000  0.82413522  0.92256214  1
  Ga  Ga6  1  0.75000000  0.67586478  0.42256214  1
  Ga  Ga7  1  0.75000000  0.17586478  0.07743786  1
  Pt  Pt8  1  0.25000000  0.22441913  0.90490281  1
  Pt  Pt9  1  0.25000000  0.72441913  0.59509719  1
  Pt  Pt10  1  0.75000000  0.77558087  0.09509719  1
  Pt  Pt11  1  0.75000000  0.27558087  0.40490281  1
