# generated using pymatgen
data_ZrCuF6
_symmetry_space_group_name_H-M   'P 1'
_cell_length_a   5.57940525
_cell_length_b   5.57940525
_cell_length_c   5.57940554
_cell_angle_alpha   56.98076572
_cell_angle_beta   56.98076578
_cell_angle_gamma   56.98076344
_symmetry_Int_Tables_number   1
_chemical_formula_structural   ZrCuF6
_chemical_formula_sum   'Zr1 Cu1 F6'
_cell_volume   114.26351908
_cell_formula_units_Z   1
loop_
 _symmetry_equiv_pos_site_id
 _symmetry_equiv_pos_as_xyz
  1  'x, y, z'
loop_
 _atom_site_type_symbol
 _atom_site_label
 _atom_site_symmetry_multiplicity
 _atom_site_fract_x
 _atom_site_fract_y
 _atom_site_fract_z
 _atom_site_occupancy
  Zr  Zr0  1  0.50000000  0.50000000  0.50000000  1
  Cu  Cu1  1  0.00000000  -0.00000000  0.00000000  1
  F  F2  1  0.64629645  0.85636130  0.24780898  1
  F  F3  1  0.14363870  0.75219102  0.35370355  1
  F  F4  1  0.24780898  0.64629645  0.85636130  1
  F  F5  1  0.35370355  0.14363870  0.75219102  1
  F  F6  1  0.75219102  0.35370355  0.14363870  1
  F  F7  1  0.85636130  0.24780898  0.64629645  1
