# generated using pymatgen
data_ScZnPt2
_symmetry_space_group_name_H-M   'P 1'
_cell_length_a   4.48864917
_cell_length_b   4.48864917
_cell_length_c   4.48864917
_cell_angle_alpha   59.86889796
_cell_angle_beta   59.86889796
_cell_angle_gamma   59.86889796
_symmetry_Int_Tables_number   1
_chemical_formula_structural   ScZnPt2
_chemical_formula_sum   'Sc1 Zn1 Pt2'
_cell_volume   63.75850147
_cell_formula_units_Z   1
loop_
 _symmetry_equiv_pos_site_id
 _symmetry_equiv_pos_as_xyz
  1  'x, y, z'
loop_
 _atom_site_type_symbol
 _atom_site_label
 _atom_site_symmetry_multiplicity
 _atom_site_fract_x
 _atom_site_fract_y
 _atom_site_fract_z
 _atom_site_occupancy
  Sc  Sc0  1  0.25000000  0.25000000  0.25000000  1
  Zn  Zn1  1  0.75000000  0.75000000  0.75000000  1
  Pt  Pt2  1  0.00040863  0.00040863  0.00040863  1
  Pt  Pt3  1  0.49959237  0.49959237  0.49959237  1
