# generated using pymatgen
data_SrPuO4
_symmetry_space_group_name_H-M   'P 1'
_cell_length_a   6.51234158
_cell_length_b   6.51234158
_cell_length_c   6.51234165
_cell_angle_alpha   35.19988051
_cell_angle_beta   35.19988051
_cell_angle_gamma   35.19988516
_symmetry_Int_Tables_number   1
_chemical_formula_structural   SrPuO4
_chemical_formula_sum   'Sr1 Pu1 O4'
_cell_volume   81.96864448
_cell_formula_units_Z   1
loop_
 _symmetry_equiv_pos_site_id
 _symmetry_equiv_pos_as_xyz
  1  'x, y, z'
loop_
 _atom_site_type_symbol
 _atom_site_label
 _atom_site_symmetry_multiplicity
 _atom_site_fract_x
 _atom_site_fract_y
 _atom_site_fract_z
 _atom_site_occupancy
  Sr  Sr0  1  0.50000000  0.50000000  0.50000000  1
  Pu  Pu1  1  0.00000000  0.00000000  0.00000000  1
  O  O2  1  0.64129097  0.64129097  0.64129097  1
  O  O3  1  0.35870903  0.35870903  0.35870903  1
  O  O4  1  0.10675524  0.10675524  0.10675524  1
  O  O5  1  0.89324476  0.89324476  0.89324476  1
