# generated using pymatgen
data_TmCdAg2
_symmetry_space_group_name_H-M   'P 1'
_cell_length_a   4.84998338
_cell_length_b   4.84998338
_cell_length_c   4.84998338
_cell_angle_alpha   60.17016001
_cell_angle_beta   60.17016001
_cell_angle_gamma   60.17016001
_symmetry_Int_Tables_number   1
_chemical_formula_structural   TmCdAg2
_chemical_formula_sum   'Tm1 Cd1 Ag2'
_cell_volume   80.97970990
_cell_formula_units_Z   1
loop_
 _symmetry_equiv_pos_site_id
 _symmetry_equiv_pos_as_xyz
  1  'x, y, z'
loop_
 _atom_site_type_symbol
 _atom_site_label
 _atom_site_symmetry_multiplicity
 _atom_site_fract_x
 _atom_site_fract_y
 _atom_site_fract_z
 _atom_site_occupancy
  Tm  Tm0  1  0.75000000  0.75000000  0.75000000  1
  Cd  Cd1  1  0.25000200  0.25000200  0.25000200  1
  Ag  Ag2  1  0.49968566  0.49968566  0.49968566  1
  Ag  Ag3  1  0.00031134  0.00031134  0.00031134  1
