# generated using pymatgen
data_ReOs3
_symmetry_space_group_name_H-M   'P 1'
_cell_length_a   5.50999456
_cell_length_b   5.50999436
_cell_length_c   4.34133602
_cell_angle_alpha   90.00000000
_cell_angle_beta   90.00000000
_cell_angle_gamma   120.00002984
_symmetry_Int_Tables_number   1
_chemical_formula_structural   ReOs3
_chemical_formula_sum   'Re2 Os6'
_cell_volume   114.14482511
_cell_formula_units_Z   2
loop_
 _symmetry_equiv_pos_site_id
 _symmetry_equiv_pos_as_xyz
  1  'x, y, z'
loop_
 _atom_site_type_symbol
 _atom_site_label
 _atom_site_symmetry_multiplicity
 _atom_site_fract_x
 _atom_site_fract_y
 _atom_site_fract_z
 _atom_site_occupancy
  Re  Re0  1  0.33333300  0.66666700  0.75000100  1
  Re  Re1  1  0.66666700  0.33333300  0.25000100  1
  Os  Os2  1  0.16721854  0.33443508  0.25000100  1
  Os  Os3  1  0.66556292  0.83278046  0.25000100  1
  Os  Os4  1  0.16721854  0.83278046  0.25000100  1
  Os  Os5  1  0.83278046  0.66556392  0.75000100  1
  Os  Os6  1  0.33443508  0.16721854  0.75000100  1
  Os  Os7  1  0.83278146  0.16721854  0.75000100  1
