# generated using pymatgen
data_NaPO3
_symmetry_space_group_name_H-M   'P 1'
_cell_length_a   6.98733340
_cell_length_b   7.03616237
_cell_length_c   7.79089855
_cell_angle_alpha   93.44658579
_cell_angle_beta   103.12142674
_cell_angle_gamma   90.03707023
_symmetry_Int_Tables_number   1
_chemical_formula_structural   NaPO3
_chemical_formula_sum   'Na6 P6 O18'
_cell_volume   372.31633924
_cell_formula_units_Z   6
loop_
 _symmetry_equiv_pos_site_id
 _symmetry_equiv_pos_as_xyz
  1  'x, y, z'
loop_
 _atom_site_type_symbol
 _atom_site_label
 _atom_site_symmetry_multiplicity
 _atom_site_fract_x
 _atom_site_fract_y
 _atom_site_fract_z
 _atom_site_occupancy
  Na  Na0  1  0.57735891  0.75595393  0.79663827  1
  Na  Na1  1  0.42264109  0.24404607  0.20336173  1
  Na  Na2  1  0.05452722  0.74907509  0.77860356  1
  Na  Na3  1  0.94547278  0.25092491  0.22139644  1
  Na  Na4  1  0.25683796  0.97777755  0.51440303  1
  Na  Na5  1  0.74316204  0.02222245  0.48559697  1
  P  P6  1  0.62120184  0.23629511  0.82192212  1
  P  P7  1  0.37879816  0.76370489  0.17807788  1
  P  P8  1  0.04219494  0.23538189  0.81923918  1
  P  P9  1  0.95780506  0.76461811  0.18076082  1
  P  P10  1  0.28089504  0.44649392  0.61454883  1
  P  P11  1  0.71910496  0.55350608  0.38545117  1
  O  O12  1  0.55793137  0.06188873  0.70434277  1
  O  O13  1  0.44206863  0.93811127  0.29565723  1
  O  O14  1  0.04477704  0.06058819  0.70219188  1
  O  O15  1  0.95522296  0.93941181  0.29780812  1
  O  O16  1  0.36646318  0.76649077  0.98645278  1
  O  O17  1  0.63353682  0.23350923  0.01354722  1
  O  O18  1  0.87103475  0.76753068  0.98899014  1
  O  O19  1  0.12896525  0.23246932  0.01100986  1
  O  O20  1  0.82427350  0.31455582  0.79001657  1
  O  O21  1  0.17572650  0.68544418  0.20998343  1
  O  O22  1  0.49073045  0.41314771  0.74418079  1
  O  O23  1  0.50926955  0.58685229  0.25581921  1
  O  O24  1  0.13376221  0.41180320  0.74198548  1
  O  O25  1  0.86623779  0.58819680  0.25801452  1
  O  O26  1  0.27435595  0.65483429  0.59341450  1
  O  O27  1  0.72564405  0.34516571  0.40658550  1
  O  O28  1  0.75770662  0.69330455  0.54005699  1
  O  O29  1  0.24229338  0.30669545  0.45994301  1
