# generated using pymatgen
data_Y2NiRu
_symmetry_space_group_name_H-M   'P 1'
_cell_length_a   4.79588941
_cell_length_b   4.79610314
_cell_length_c   4.79633817
_cell_angle_alpha   59.99033879
_cell_angle_beta   59.99094971
_cell_angle_gamma   59.99430121
_symmetry_Int_Tables_number   1
_chemical_formula_structural   Y2NiRu
_chemical_formula_sum   'Y2 Ni1 Ru1'
_cell_volume   77.99600174
_cell_formula_units_Z   1
loop_
 _symmetry_equiv_pos_site_id
 _symmetry_equiv_pos_as_xyz
  1  'x, y, z'
loop_
 _atom_site_type_symbol
 _atom_site_label
 _atom_site_symmetry_multiplicity
 _atom_site_fract_x
 _atom_site_fract_y
 _atom_site_fract_z
 _atom_site_occupancy
  Y  Y0  1  0.00000270  0.00000044  -0.00000043  1
  Y  Y1  1  0.49999795  0.49999894  0.49999899  1
  Ni  Ni2  1  0.25000011  0.24999907  0.24999996  1
  Ru  Ru3  1  0.74999923  0.75000155  0.75000149  1
