# generated using pymatgen
data_VIr3
_symmetry_space_group_name_H-M   'P 1'
_cell_length_a   5.43434995
_cell_length_b   5.43434972
_cell_length_c   4.33421918
_cell_angle_alpha   90.00000000
_cell_angle_beta   90.00000000
_cell_angle_gamma   120.00000132
_symmetry_Int_Tables_number   1
_chemical_formula_structural   VIr3
_chemical_formula_sum   'V2 Ir6'
_cell_volume   110.85025103
_cell_formula_units_Z   2
loop_
 _symmetry_equiv_pos_site_id
 _symmetry_equiv_pos_as_xyz
  1  'x, y, z'
loop_
 _atom_site_type_symbol
 _atom_site_label
 _atom_site_symmetry_multiplicity
 _atom_site_fract_x
 _atom_site_fract_y
 _atom_site_fract_z
 _atom_site_occupancy
  V  V0  1  0.33333400  0.66666800  0.74999645  1
  V  V1  1  0.66666700  0.33333300  0.25000355  1
  Ir  Ir2  1  0.16742612  0.33485224  0.24999931  1
  Ir  Ir3  1  0.66514876  0.83257488  0.24999931  1
  Ir  Ir4  1  0.16742612  0.83257488  0.24999931  1
  Ir  Ir5  1  0.83257388  0.66514676  0.75000069  1
  Ir  Ir6  1  0.33485324  0.16742812  0.75000069  1
  Ir  Ir7  1  0.83257488  0.16742812  0.75000069  1
