# generated using pymatgen
data_Ho2TlAg
_symmetry_space_group_name_H-M   'P 1'
_cell_length_a   5.20143390
_cell_length_b   5.20144045
_cell_length_c   5.20143827
_cell_angle_alpha   60.00003242
_cell_angle_beta   59.99994455
_cell_angle_gamma   60.00002320
_symmetry_Int_Tables_number   1
_chemical_formula_structural   Ho2TlAg
_chemical_formula_sum   'Ho2 Tl1 Ag1'
_cell_volume   99.50735126
_cell_formula_units_Z   1
loop_
 _symmetry_equiv_pos_site_id
 _symmetry_equiv_pos_as_xyz
  1  'x, y, z'
loop_
 _atom_site_type_symbol
 _atom_site_label
 _atom_site_symmetry_multiplicity
 _atom_site_fract_x
 _atom_site_fract_y
 _atom_site_fract_z
 _atom_site_occupancy
  Ho  Ho0  1  -0.00000000  0.00000000  -0.00000000  1
  Ho  Ho1  1  0.50000000  0.50000000  0.49999900  1
  Tl  Tl2  1  0.75000000  0.75000000  0.75000000  1
  Ag  Ag3  1  0.25000000  0.25000000  0.25000000  1
