# generated using pymatgen
data_Sc2TlAg
_symmetry_space_group_name_H-M   'P 1'
_cell_length_a   4.95138595
_cell_length_b   4.96454400
_cell_length_c   4.95134317
_cell_angle_alpha   59.91206357
_cell_angle_beta   60.17602571
_cell_angle_gamma   59.91100726
_symmetry_Int_Tables_number   1
_chemical_formula_structural   Sc2TlAg
_chemical_formula_sum   'Sc2 Tl1 Ag1'
_cell_volume   86.06073029
_cell_formula_units_Z   1
loop_
 _symmetry_equiv_pos_site_id
 _symmetry_equiv_pos_as_xyz
  1  'x, y, z'
loop_
 _atom_site_type_symbol
 _atom_site_label
 _atom_site_symmetry_multiplicity
 _atom_site_fract_x
 _atom_site_fract_y
 _atom_site_fract_z
 _atom_site_occupancy
  Sc  Sc0  1  0.99999595  0.99999257  0.00000416  1
  Sc  Sc1  1  0.50000389  0.50000757  0.49999596  1
  Tl  Tl2  1  0.75000182  0.74999819  0.75000003  1
  Ag  Ag3  1  0.24999834  0.25000168  0.25000086  1
