# generated using pymatgen
data_Sm2MgGe2
_symmetry_space_group_name_H-M   'P 1'
_cell_length_a   7.37591389
_cell_length_b   7.37591389
_cell_length_c   4.32906609
_cell_angle_alpha   90.00000000
_cell_angle_beta   90.00000000
_cell_angle_gamma   90.00000000
_symmetry_Int_Tables_number   1
_chemical_formula_structural   Sm2MgGe2
_chemical_formula_sum   'Sm4 Mg2 Ge4'
_cell_volume   235.51896920
_cell_formula_units_Z   2
loop_
 _symmetry_equiv_pos_site_id
 _symmetry_equiv_pos_as_xyz
  1  'x, y, z'
loop_
 _atom_site_type_symbol
 _atom_site_label
 _atom_site_symmetry_multiplicity
 _atom_site_fract_x
 _atom_site_fract_y
 _atom_site_fract_z
 _atom_site_occupancy
  Sm  Sm0  1  0.32169038  0.17830962  0.50000000  1
  Sm  Sm1  1  0.82169038  0.32169038  0.50000000  1
  Sm  Sm2  1  0.17830962  0.67830962  0.50000000  1
  Sm  Sm3  1  0.67830962  0.82169038  0.50000000  1
  Mg  Mg4  1  -0.00000000  0.00000000  0.00000000  1
  Mg  Mg5  1  0.50000000  0.50000000  0.00000000  1
  Ge  Ge6  1  0.62105526  0.12105526  -0.00000000  1
  Ge  Ge7  1  0.12105526  0.37894374  -0.00000000  1
  Ge  Ge8  1  0.87894474  0.62105526  0.00000000  1
  Ge  Ge9  1  0.37894374  0.87894474  0.00000000  1
