# generated using pymatgen
data_HoCoSi2
_symmetry_space_group_name_H-M   'P 1'
_cell_length_a   3.93451903
_cell_length_b   3.98869005
_cell_length_c   8.33130025
_cell_angle_alpha   103.84993730
_cell_angle_beta   90.00000000
_cell_angle_gamma   90.00000000
_symmetry_Int_Tables_number   1
_chemical_formula_structural   HoCoSi2
_chemical_formula_sum   'Ho2 Co2 Si4'
_cell_volume   126.94653834
_cell_formula_units_Z   2
loop_
 _symmetry_equiv_pos_site_id
 _symmetry_equiv_pos_as_xyz
  1  'x, y, z'
loop_
 _atom_site_type_symbol
 _atom_site_label
 _atom_site_symmetry_multiplicity
 _atom_site_fract_x
 _atom_site_fract_y
 _atom_site_fract_z
 _atom_site_occupancy
  Ho  Ho0  1  0.25000000  0.89160603  0.78321407  1
  Ho  Ho1  1  0.75000000  0.10839397  0.21678593  1
  Co  Co2  1  0.25000000  0.67861392  0.35722585  1
  Co  Co3  1  0.75000000  0.32138608  0.64277415  1
  Si  Si4  1  0.75000000  0.74976583  0.49952965  1
  Si  Si5  1  0.25000000  0.25023417  0.50047035  1
  Si  Si6  1  0.75000000  0.45705677  0.91411253  1
  Si  Si7  1  0.25000000  0.54294323  0.08588747  1
