# generated using pymatgen
data_K2Na(H2N)3
_symmetry_space_group_name_H-M   'P 1'
_cell_length_a   6.98808948
_cell_length_b   6.98808948
_cell_length_c   12.30603467
_cell_angle_alpha   90.00000000
_cell_angle_beta   90.00000000
_cell_angle_gamma   90.00000000
_symmetry_Int_Tables_number   1
_chemical_formula_structural   K2Na(H2N)3
_chemical_formula_sum   'K8 Na4 H24 N12'
_cell_volume   600.94544732
_cell_formula_units_Z   4
loop_
 _symmetry_equiv_pos_site_id
 _symmetry_equiv_pos_as_xyz
  1  'x, y, z'
loop_
 _atom_site_type_symbol
 _atom_site_label
 _atom_site_symmetry_multiplicity
 _atom_site_fract_x
 _atom_site_fract_y
 _atom_site_fract_z
 _atom_site_occupancy
  K  K0  1  0.50000000  0.50000000  0.25000000  1
  K  K1  1  0.50000000  0.50000000  0.75000000  1
  K  K2  1  0.00000000  0.00000000  0.00000000  1
  K  K3  1  0.00000000  0.00000000  0.50000000  1
  K  K4  1  0.00000000  0.50000000  0.15135414  1
  K  K5  1  0.50000000  0.00000000  0.65135414  1
  K  K6  1  0.00000000  0.50000000  0.84864586  1
  K  K7  1  0.50000000  0.00000000  0.34864586  1
  Na  Na8  1  0.36526898  0.32681256  0.00000000  1
  Na  Na9  1  0.63473102  0.67318744  0.00000000  1
  Na  Na10  1  0.67318744  0.36526898  0.50000000  1
  Na  Na11  1  0.32681256  0.63473102  0.50000000  1
  H  H12  1  0.16505083  0.15119320  0.21980297  1
  H  H13  1  0.83494917  0.84880680  0.21980297  1
  H  H14  1  0.84880680  0.16505083  0.71980297  1
  H  H15  1  0.15119320  0.83494917  0.71980297  1
  H  H16  1  0.83494917  0.84880680  0.78019703  1
  H  H17  1  0.16505083  0.15119320  0.78019703  1
  H  H18  1  0.15119320  0.83494917  0.28019703  1
  H  H19  1  0.84880680  0.16505083  0.28019703  1
  H  H20  1  0.33162438  0.05912955  0.14804602  1
  H  H21  1  0.66837562  0.94087045  0.14804602  1
  H  H22  1  0.94087045  0.33162438  0.64804602  1
  H  H23  1  0.05912955  0.66837562  0.64804602  1
  H  H24  1  0.66837562  0.94087045  0.85195398  1
  H  H25  1  0.33162438  0.05912955  0.85195398  1
  H  H26  1  0.05912955  0.66837562  0.35195398  1
  H  H27  1  0.94087045  0.33162438  0.35195398  1
  H  H28  1  0.70716274  0.25131017  0.06509066  1
  H  H29  1  0.29283726  0.74868983  0.06509066  1
  H  H30  1  0.74868983  0.70716274  0.56509066  1
  H  H31  1  0.25131017  0.29283726  0.56509066  1
  H  H32  1  0.29283726  0.74868983  0.93490934  1
  H  H33  1  0.70716274  0.25131017  0.93490934  1
  H  H34  1  0.25131017  0.29283726  0.43490934  1
  H  H35  1  0.74868983  0.70716274  0.43490934  1
  N  N36  1  0.72483168  0.34150491  0.00000000  1
  N  N37  1  0.27516832  0.65849509  0.00000000  1
  N  N38  1  0.65849509  0.72483168  0.50000000  1
  N  N39  1  0.34150491  0.27516832  0.50000000  1
  N  N40  1  0.26765183  0.18831908  0.16415536  1
  N  N41  1  0.73234817  0.81168092  0.16415536  1
  N  N42  1  0.81168092  0.26765183  0.66415536  1
  N  N43  1  0.18831908  0.73234817  0.66415536  1
  N  N44  1  0.73234817  0.81168092  0.83584464  1
  N  N45  1  0.26765183  0.18831908  0.83584464  1
  N  N46  1  0.18831908  0.73234817  0.33584464  1
  N  N47  1  0.81168092  0.26765183  0.33584464  1
