# generated using pymatgen
data_TmNbOs2
_symmetry_space_group_name_H-M   'P 1'
_cell_length_a   4.59991634
_cell_length_b   4.59991634
_cell_length_c   4.59991634
_cell_angle_alpha   60.09804435
_cell_angle_beta   60.09804435
_cell_angle_gamma   60.09804435
_symmetry_Int_Tables_number   1
_chemical_formula_structural   TmNbOs2
_chemical_formula_sum   'Tm1 Nb1 Os2'
_cell_volume   68.97608338
_cell_formula_units_Z   1
loop_
 _symmetry_equiv_pos_site_id
 _symmetry_equiv_pos_as_xyz
  1  'x, y, z'
loop_
 _atom_site_type_symbol
 _atom_site_label
 _atom_site_symmetry_multiplicity
 _atom_site_fract_x
 _atom_site_fract_y
 _atom_site_fract_z
 _atom_site_occupancy
  Tm  Tm0  1  0.74999900  0.74999900  0.74999900  1
  Nb  Nb1  1  0.25000200  0.25000200  0.25000200  1
  Os  Os2  1  0.00015929  0.00015929  0.00015929  1
  Os  Os3  1  0.49983871  0.49983871  0.49983871  1
