# generated using pymatgen
data_CaTiF5
_symmetry_space_group_name_H-M   'P 1'
_cell_length_a   5.62023520
_cell_length_b   5.62024730
_cell_length_c   7.67064176
_cell_angle_alpha   70.20292712
_cell_angle_beta   70.20293219
_cell_angle_gamma   72.07708476
_symmetry_Int_Tables_number   1
_chemical_formula_structural   CaTiF5
_chemical_formula_sum   'Ca2 Ti2 F10'
_cell_volume   209.33896148
_cell_formula_units_Z   2
loop_
 _symmetry_equiv_pos_site_id
 _symmetry_equiv_pos_as_xyz
  1  'x, y, z'
loop_
 _atom_site_type_symbol
 _atom_site_label
 _atom_site_symmetry_multiplicity
 _atom_site_fract_x
 _atom_site_fract_y
 _atom_site_fract_z
 _atom_site_occupancy
  Ca  Ca0  1  0.54219874  0.45780155  0.75000000  1
  Ca  Ca1  1  0.45779961  0.54219939  0.25000049  1
  Ti  Ti2  1  1.00000048  1.00000054  -0.00000054  1
  Ti  Ti3  1  0.00000079  0.00000060  0.49999994  1
  F  F4  1  0.24938202  0.20886662  0.88154460  1
  F  F5  1  0.79113402  0.75061689  0.61845473  1
  F  F6  1  0.75061779  0.79113268  0.11845528  1
  F  F7  1  0.20886655  0.24938253  0.38154511  1
  F  F8  1  0.90387983  0.09611977  0.75000027  1
  F  F9  1  0.09611889  0.90388133  0.24999970  1
  F  F10  1  0.68770505  0.29034958  0.46951653  1
  F  F11  1  0.70964987  0.31229406  0.03048348  1
  F  F12  1  0.31229512  0.70964896  0.53048336  1
  F  F13  1  0.29035124  0.68770550  0.96951706  1
