# generated using pymatgen
data_Sr(P3Pt2)2
_symmetry_space_group_name_H-M   'P 1'
_cell_length_a   5.76749103
_cell_length_b   5.76749103
_cell_length_c   11.48723572
_cell_angle_alpha   89.54071307
_cell_angle_beta   89.54071307
_cell_angle_gamma   88.00473884
_symmetry_Int_Tables_number   1
_chemical_formula_structural   Sr(P3Pt2)2
_chemical_formula_sum   'Sr2 P12 Pt8'
_cell_volume   381.85548420
_cell_formula_units_Z   2
loop_
 _symmetry_equiv_pos_site_id
 _symmetry_equiv_pos_as_xyz
  1  'x, y, z'
loop_
 _atom_site_type_symbol
 _atom_site_label
 _atom_site_symmetry_multiplicity
 _atom_site_fract_x
 _atom_site_fract_y
 _atom_site_fract_z
 _atom_site_occupancy
  Sr  Sr0  1  0.60138778  0.39861222  0.75000000  1
  Sr  Sr1  1  0.39861222  0.60138778  0.25000000  1
  P  P2  1  0.08818377  0.13020377  0.30515038  1
  P  P3  1  0.86979623  0.91181623  0.19484962  1
  P  P4  1  0.91181623  0.86979623  0.69484962  1
  P  P5  1  0.13020377  0.08818377  0.80515038  1
  P  P6  1  0.61566926  0.88553967  0.94712407  1
  P  P7  1  0.11446033  0.38433074  0.55287593  1
  P  P8  1  0.38433074  0.11446033  0.05287593  1
  P  P9  1  0.88553967  0.61566926  0.44712407  1
  P  P10  1  0.88384456  0.39154803  0.05092804  1
  P  P11  1  0.60845197  0.11615544  0.44907196  1
  P  P12  1  0.39154803  0.88384456  0.55092804  1
  P  P13  1  0.11615544  0.60845197  0.94907196  1
  Pt  Pt14  1  0.50730691  0.92082145  0.74968528  1
  Pt  Pt15  1  0.07917855  0.49269309  0.75031472  1
  Pt  Pt16  1  0.50000000  0.50000000  0.50000000  1
  Pt  Pt17  1  0.50000000  0.50000000  0.00000000  1
  Pt  Pt18  1  0.00000000  -0.00000000  0.50000000  1
  Pt  Pt19  1  0.00000000  -0.00000000  0.00000000  1
  Pt  Pt20  1  0.92082145  0.50730691  0.24968528  1
  Pt  Pt21  1  0.49269309  0.07917855  0.25031472  1
