# generated using pymatgen
data_CsCr5Te8
_symmetry_space_group_name_H-M   'P 1'
_cell_length_a   10.52943575
_cell_length_b   10.52943575
_cell_length_c   9.81450512
_cell_angle_alpha   75.80667225
_cell_angle_beta   75.80667225
_cell_angle_gamma   22.04043881
_symmetry_Int_Tables_number   1
_chemical_formula_structural   CsCr5Te8
_chemical_formula_sum   'Cs1 Cr5 Te8'
_cell_volume   395.38537936
_cell_formula_units_Z   1
loop_
 _symmetry_equiv_pos_site_id
 _symmetry_equiv_pos_as_xyz
  1  'x, y, z'
loop_
 _atom_site_type_symbol
 _atom_site_label
 _atom_site_symmetry_multiplicity
 _atom_site_fract_x
 _atom_site_fract_y
 _atom_site_fract_z
 _atom_site_occupancy
  Cs  Cs0  1  0.50000000  0.50000000  0.50000000  1
  Cr  Cr1  1  0.66010994  0.66010994  0.01498565  1
  Cr  Cr2  1  0.33989006  0.33989006  0.98501435  1
  Cr  Cr3  1  0.70417593  0.70417593  0.66887627  1
  Cr  Cr4  1  0.29582407  0.29582407  0.33112373  1
  Cr  Cr5  1  -0.00000000  -0.00000000  -0.00000000  1
  Te  Te6  1  0.76081408  0.76081408  0.15763664  1
  Te  Te7  1  0.23918592  0.23918592  0.84236336  1
  Te  Te8  1  0.42585347  0.42585347  0.15483853  1
  Te  Te9  1  0.57414653  0.57414653  0.84516147  1
  Te  Te10  1  0.91109411  0.91109411  0.83334497  1
  Te  Te11  1  0.08890589  0.08890589  0.16665503  1
  Te  Te12  1  0.82794041  0.82794041  0.49081087  1
  Te  Te13  1  0.17205959  0.17205959  0.50918913  1
