# generated using pymatgen
data_ErPPd
_symmetry_space_group_name_H-M   'P 1'
_cell_length_a   3.96670330
_cell_length_b   6.86526819
_cell_length_c   7.68813674
_cell_angle_alpha   90.00000000
_cell_angle_beta   90.00000000
_cell_angle_gamma   90.00000000
_symmetry_Int_Tables_number   1
_chemical_formula_structural   ErPPd
_chemical_formula_sum   'Er4 P4 Pd4'
_cell_volume   209.36704527
_cell_formula_units_Z   4
loop_
 _symmetry_equiv_pos_site_id
 _symmetry_equiv_pos_as_xyz
  1  'x, y, z'
loop_
 _atom_site_type_symbol
 _atom_site_label
 _atom_site_symmetry_multiplicity
 _atom_site_fract_x
 _atom_site_fract_y
 _atom_site_fract_z
 _atom_site_occupancy
  Er  Er0  1  0.25000000  0.03179883  0.81194963  1
  Er  Er1  1  0.75000000  0.96820117  0.18805037  1
  Er  Er2  1  0.25000000  0.53179883  0.68805037  1
  Er  Er3  1  0.75000000  0.46820117  0.31194963  1
  P  P4  1  0.25000000  0.74779649  0.37683598  1
  P  P5  1  0.75000000  0.25220351  0.62316402  1
  P  P6  1  0.25000000  0.24779649  0.12316402  1
  P  P7  1  0.75000000  0.75220351  0.87683598  1
  Pd  Pd8  1  0.75000000  0.35118240  0.93837845  1
  Pd  Pd9  1  0.25000000  0.64881760  0.06162155  1
  Pd  Pd10  1  0.75000000  0.85118240  0.56162155  1
  Pd  Pd11  1  0.25000000  0.14881760  0.43837845  1
