# generated using pymatgen
data_PaGaTc2
_symmetry_space_group_name_H-M   'P 1'
_cell_length_a   4.58117369
_cell_length_b   4.58117362
_cell_length_c   4.58117420
_cell_angle_alpha   60.00010625
_cell_angle_beta   60.00011810
_cell_angle_gamma   60.00011202
_symmetry_Int_Tables_number   1
_chemical_formula_structural   PaGaTc2
_chemical_formula_sum   'Pa1 Ga1 Tc2'
_cell_volume   67.98551972
_cell_formula_units_Z   1
loop_
 _symmetry_equiv_pos_site_id
 _symmetry_equiv_pos_as_xyz
  1  'x, y, z'
loop_
 _atom_site_type_symbol
 _atom_site_label
 _atom_site_symmetry_multiplicity
 _atom_site_fract_x
 _atom_site_fract_y
 _atom_site_fract_z
 _atom_site_occupancy
  Pa  Pa0  1  0.75000086  0.75000087  0.75000088  1
  Ga  Ga1  1  0.25000088  0.25000088  0.25000088  1
  Tc  Tc2  1  0.00000020  0.00000019  0.00000022  1
  Tc  Tc3  1  0.49999906  0.49999906  0.49999902  1
