# generated using pymatgen
data_Zr6Al16Ru7
_symmetry_space_group_name_H-M   'P 1'
_cell_length_a   8.69211902
_cell_length_b   8.69212194
_cell_length_c   8.69209644
_cell_angle_alpha   60.00015630
_cell_angle_beta   60.00013517
_cell_angle_gamma   59.99976720
_symmetry_Int_Tables_number   1
_chemical_formula_structural   Zr6Al16Ru7
_chemical_formula_sum   'Zr6 Al16 Ru7'
_cell_volume   464.36684619
_cell_formula_units_Z   1
loop_
 _symmetry_equiv_pos_site_id
 _symmetry_equiv_pos_as_xyz
  1  'x, y, z'
loop_
 _atom_site_type_symbol
 _atom_site_label
 _atom_site_symmetry_multiplicity
 _atom_site_fract_x
 _atom_site_fract_y
 _atom_site_fract_z
 _atom_site_occupancy
  Zr  Zr0  1  0.20656481  0.79345974  0.79341753  1
  Zr  Zr1  1  0.79343512  0.20654066  0.20658409  1
  Zr  Zr2  1  0.79345655  0.20655747  0.79342568  1
  Zr  Zr3  1  0.79342275  0.79343587  0.20659219  1
  Zr  Zr4  1  0.20654217  0.79344385  0.20657690  1
  Zr  Zr5  1  0.20657557  0.20656521  0.79341090  1
  Al  Al6  1  0.83545603  0.83545244  0.83547185  1
  Al  Al7  1  0.83545799  0.83545740  0.49361483  1
  Al  Al8  1  0.49362179  0.83546535  0.83545880  1
  Al  Al9  1  0.83546737  0.49361836  0.83546045  1
  Al  Al10  1  0.16454142  0.16454661  0.16453156  1
  Al  Al11  1  0.16454038  0.16454087  0.50638478  1
  Al  Al12  1  0.16453597  0.50638195  0.16453674  1
  Al  Al13  1  0.50637896  0.16453933  0.16453945  1
  Al  Al14  1  0.61950080  0.61950053  0.61949538  1
  Al  Al15  1  0.61950530  0.61950114  0.14149988  1
  Al  Al16  1  0.14150411  0.61949026  0.61950542  1
  Al  Al17  1  0.61949242  0.14150341  0.61950245  1
  Al  Al18  1  0.38050076  0.38049991  0.38050369  1
  Al  Al19  1  0.38049521  0.38049909  0.85849996  1
  Al  Al20  1  0.38050726  0.85849583  0.38049793  1
  Al  Al21  1  0.85849526  0.38050840  0.38049510  1
  Ru  Ru22  1  0.00000191  0.49999958  0.49999721  1
  Ru  Ru23  1  0.49999695  0.00000176  0.00000317  1
  Ru  Ru24  1  0.50000181  0.00000386  0.49999492  1
  Ru  Ru25  1  0.50000169  0.49999782  0.00000284  1
  Ru  Ru26  1  -0.00000126  0.49999384  0.00000475  1
  Ru  Ru27  1  -0.00000054  0.00000104  0.49999476  1
  Ru  Ru28  1  0.50000143  0.49999846  0.49999777  1
