# generated using pymatgen
data_K2HfF6
_symmetry_space_group_name_H-M   'P 1'
_cell_length_a   6.06128031
_cell_length_b   6.06128031
_cell_length_c   8.87115087
_cell_angle_alpha   90.00000000
_cell_angle_beta   90.00000000
_cell_angle_gamma   90.00000000
_symmetry_Int_Tables_number   1
_chemical_formula_structural   K2HfF6
_chemical_formula_sum   'K4 Hf2 F12'
_cell_volume   325.91826745
_cell_formula_units_Z   2
loop_
 _symmetry_equiv_pos_site_id
 _symmetry_equiv_pos_as_xyz
  1  'x, y, z'
loop_
 _atom_site_type_symbol
 _atom_site_label
 _atom_site_symmetry_multiplicity
 _atom_site_fract_x
 _atom_site_fract_y
 _atom_site_fract_z
 _atom_site_occupancy
  K  K0  1  -0.00000000  0.50000000  0.25000000  1
  K  K1  1  0.50000000  0.00000000  0.25000000  1
  K  K2  1  0.50000000  0.00000000  0.75000000  1
  K  K3  1  -0.00000000  0.50000000  0.75000000  1
  Hf  Hf4  1  -0.00000000  0.00000000  -0.00000000  1
  Hf  Hf5  1  0.50000000  0.50000000  0.50000000  1
  F  F6  1  0.35459121  0.20650553  0.50000000  1
  F  F7  1  0.64540879  0.79349447  0.50000000  1
  F  F8  1  0.70650553  0.85459121  -0.00000000  1
  F  F9  1  0.20650553  0.64540879  0.50000000  1
  F  F10  1  0.79349447  0.35459121  0.50000000  1
  F  F11  1  0.14540879  0.70650553  0.00000000  1
  F  F12  1  -0.00000000  0.00000000  0.22452281  1
  F  F13  1  0.50000000  0.50000000  0.27547719  1
  F  F14  1  -0.00000000  0.00000000  0.77547719  1
  F  F15  1  0.50000000  0.50000000  0.72452281  1
  F  F16  1  0.29349447  0.14540879  0.00000000  1
  F  F17  1  0.85459121  0.29349447  0.00000000  1
