# generated using pymatgen
data_Sc2CuAu
_symmetry_space_group_name_H-M   'P 1'
_cell_length_a   4.69741376
_cell_length_b   4.69741361
_cell_length_c   4.69741370
_cell_angle_alpha   60.00040643
_cell_angle_beta   60.00040698
_cell_angle_gamma   60.00040419
_symmetry_Int_Tables_number   1
_chemical_formula_structural   Sc2CuAu
_chemical_formula_sum   'Sc2 Cu1 Au1'
_cell_volume   73.29349411
_cell_formula_units_Z   1
loop_
 _symmetry_equiv_pos_site_id
 _symmetry_equiv_pos_as_xyz
  1  'x, y, z'
loop_
 _atom_site_type_symbol
 _atom_site_label
 _atom_site_symmetry_multiplicity
 _atom_site_fract_x
 _atom_site_fract_y
 _atom_site_fract_z
 _atom_site_occupancy
  Sc  Sc0  1  0.00000006  0.00000007  0.00000006  1
  Sc  Sc1  1  0.50000077  0.50000077  0.50000078  1
  Cu  Cu2  1  0.74999906  0.74999906  0.74999906  1
  Au  Au3  1  0.25000011  0.25000010  0.25000010  1
