# generated using pymatgen
data_PmInPd2
_symmetry_space_group_name_H-M   'P 1'
_cell_length_a   4.85158979
_cell_length_b   4.85235281
_cell_length_c   4.85284012
_cell_angle_alpha   59.98575865
_cell_angle_beta   59.95088504
_cell_angle_gamma   60.08977123
_symmetry_Int_Tables_number   1
_chemical_formula_structural   PmInPd2
_chemical_formula_sum   'Pm1 In1 Pd2'
_cell_volume   80.79839480
_cell_formula_units_Z   1
loop_
 _symmetry_equiv_pos_site_id
 _symmetry_equiv_pos_as_xyz
  1  'x, y, z'
loop_
 _atom_site_type_symbol
 _atom_site_label
 _atom_site_symmetry_multiplicity
 _atom_site_fract_x
 _atom_site_fract_y
 _atom_site_fract_z
 _atom_site_occupancy
  Pm  Pm0  1  0.75003797  0.75001412  0.74997336  1
  In  In1  1  0.24988236  0.24987328  0.25012365  1
  Pd  Pd2  1  0.00004199  0.00035418  0.99983044  1
  Pd  Pd3  1  0.50003868  0.49975943  0.50007356  1
