# generated using pymatgen
data_BaSn
_symmetry_space_group_name_H-M   'P 1'
_cell_length_a   4.71513922
_cell_length_b   5.36613142
_cell_length_c   6.90546423
_cell_angle_alpha   112.86383382
_cell_angle_beta   90.00000000
_cell_angle_gamma   90.00000000
_symmetry_Int_Tables_number   1
_chemical_formula_structural   BaSn
_chemical_formula_sum   'Ba2 Sn2'
_cell_volume   160.99465246
_cell_formula_units_Z   2
loop_
 _symmetry_equiv_pos_site_id
 _symmetry_equiv_pos_as_xyz
  1  'x, y, z'
loop_
 _atom_site_type_symbol
 _atom_site_label
 _atom_site_symmetry_multiplicity
 _atom_site_fract_x
 _atom_site_fract_y
 _atom_site_fract_z
 _atom_site_occupancy
  Ba  Ba0  1  0.25000000  0.86442286  0.72884772  1
  Ba  Ba1  1  0.75000000  0.13557714  0.27115228  1
  Sn  Sn2  1  0.25000000  0.57205814  0.14411627  1
  Sn  Sn3  1  0.75000000  0.42794186  0.85588373  1
