# generated using pymatgen
data_RbTl3
_symmetry_space_group_name_H-M   'P 1'
_cell_length_a   8.26320710
_cell_length_b   8.26320650
_cell_length_c   5.19644059
_cell_angle_alpha   90.00000000
_cell_angle_beta   90.00000000
_cell_angle_gamma   119.99999818
_symmetry_Int_Tables_number   1
_chemical_formula_structural   RbTl3
_chemical_formula_sum   'Rb2 Tl6'
_cell_volume   307.27968546
_cell_formula_units_Z   2
loop_
 _symmetry_equiv_pos_site_id
 _symmetry_equiv_pos_as_xyz
  1  'x, y, z'
loop_
 _atom_site_type_symbol
 _atom_site_label
 _atom_site_symmetry_multiplicity
 _atom_site_fract_x
 _atom_site_fract_y
 _atom_site_fract_z
 _atom_site_occupancy
  Rb  Rb0  1  0.33333300  0.66666600  0.75000100  1
  Rb  Rb1  1  0.66666700  0.33333300  0.25000200  1
  Tl  Tl2  1  0.13581068  0.27162236  0.25000200  1
  Tl  Tl3  1  0.72837864  0.86418832  0.25000200  1
  Tl  Tl4  1  0.13580968  0.86418832  0.25000200  1
  Tl  Tl5  1  0.86418932  0.72837864  0.75000100  1
  Tl  Tl6  1  0.27162136  0.13580968  0.75000100  1
  Tl  Tl7  1  0.86418932  0.13580968  0.75000100  1
