# generated using pymatgen
data_PmPd2Pb
_symmetry_space_group_name_H-M   'P 1'
_cell_length_a   4.91089438
_cell_length_b   4.90782991
_cell_length_c   4.90716276
_cell_angle_alpha   60.05073259
_cell_angle_beta   59.97654085
_cell_angle_gamma   59.98776505
_symmetry_Int_Tables_number   1
_chemical_formula_structural   PmPd2Pb
_chemical_formula_sum   'Pm1 Pd2 Pb1'
_cell_volume   83.64009031
_cell_formula_units_Z   1
loop_
 _symmetry_equiv_pos_site_id
 _symmetry_equiv_pos_as_xyz
  1  'x, y, z'
loop_
 _atom_site_type_symbol
 _atom_site_label
 _atom_site_symmetry_multiplicity
 _atom_site_fract_x
 _atom_site_fract_y
 _atom_site_fract_z
 _atom_site_occupancy
  Pm  Pm0  1  0.74999618  0.75000929  0.75001759  1
  Pd  Pd1  1  0.00007117  -0.00000932  0.99986801  1
  Pd  Pd2  1  0.49991783  0.50002593  0.50009741  1
  Pb  Pb3  1  0.25001682  0.24997310  0.25001699  1
