# generated using pymatgen
data_Si3NiP4
_symmetry_space_group_name_H-M   'P 1'
_cell_length_a   5.16839040
_cell_length_b   5.16839094
_cell_length_c   6.33440648
_cell_angle_alpha   114.07685477
_cell_angle_beta   114.07685254
_cell_angle_gamma   89.99999915
_symmetry_Int_Tables_number   1
_chemical_formula_structural   Si3NiP4
_chemical_formula_sum   'Si3 Ni1 P4'
_cell_volume   138.20486134
_cell_formula_units_Z   1
loop_
 _symmetry_equiv_pos_site_id
 _symmetry_equiv_pos_as_xyz
  1  'x, y, z'
loop_
 _atom_site_type_symbol
 _atom_site_label
 _atom_site_symmetry_multiplicity
 _atom_site_fract_x
 _atom_site_fract_y
 _atom_site_fract_z
 _atom_site_occupancy
  Si  Si0  1  0.25000000  0.75000000  0.50000000  1
  Si  Si1  1  0.50000000  0.50000000  0.00000000  1
  Si  Si2  1  0.75000000  0.25000000  0.50000000  1
  Ni  Ni3  1  0.00000000  -0.00000000  0.00000000  1
  P  P4  1  0.63987120  0.12287557  0.76274577  1
  P  P5  1  0.12287557  0.63987120  0.76274577  1
  P  P6  1  0.87712443  0.87712443  0.23725423  1
  P  P7  1  0.36012880  0.36012880  0.23725423  1
