# generated using pymatgen
data_SrNiSn2
_symmetry_space_group_name_H-M   'P 1'
_cell_length_a   4.55017116
_cell_length_b   4.61577782
_cell_length_c   9.57818272
_cell_angle_alpha   76.05722418
_cell_angle_beta   90.00000000
_cell_angle_gamma   90.00000000
_symmetry_Int_Tables_number   1
_chemical_formula_structural   SrNiSn2
_chemical_formula_sum   'Sr2 Ni2 Sn4'
_cell_volume   195.23954282
_cell_formula_units_Z   2
loop_
 _symmetry_equiv_pos_site_id
 _symmetry_equiv_pos_as_xyz
  1  'x, y, z'
loop_
 _atom_site_type_symbol
 _atom_site_label
 _atom_site_symmetry_multiplicity
 _atom_site_fract_x
 _atom_site_fract_y
 _atom_site_fract_z
 _atom_site_occupancy
  Sr  Sr0  1  0.25000100  0.89103985  0.21792129  1
  Sr  Sr1  1  0.75000000  0.10895915  0.78207871  1
  Ni  Ni2  1  0.75000000  0.31738663  0.36522475  1
  Ni  Ni3  1  0.25000100  0.68261237  0.63477425  1
  Sn  Sn4  1  0.75000000  0.45276716  0.09446568  1
  Sn  Sn5  1  0.25000100  0.25058126  0.49883647  1
  Sn  Sn6  1  0.75000000  0.74941774  0.50116453  1
  Sn  Sn7  1  0.25000100  0.54723184  0.90553432  1
