# generated using pymatgen
data_Ti2ReRh
_symmetry_space_group_name_H-M   'P 1'
_cell_length_a   4.38057929
_cell_length_b   4.38057934
_cell_length_c   4.38010954
_cell_angle_alpha   59.89411212
_cell_angle_beta   59.89031965
_cell_angle_gamma   59.90801931
_symmetry_Int_Tables_number   1
_chemical_formula_structural   Ti2ReRh
_chemical_formula_sum   'Ti2 Re1 Rh1'
_cell_volume   59.29550747
_cell_formula_units_Z   1
loop_
 _symmetry_equiv_pos_site_id
 _symmetry_equiv_pos_as_xyz
  1  'x, y, z'
loop_
 _atom_site_type_symbol
 _atom_site_label
 _atom_site_symmetry_multiplicity
 _atom_site_fract_x
 _atom_site_fract_y
 _atom_site_fract_z
 _atom_site_occupancy
  Ti  Ti0  1  0.99989231  0.99987838  0.00015698  1
  Ti  Ti1  1  0.50011251  0.50011889  0.49983649  1
  Re  Re2  1  0.24999819  0.25000362  0.25000516  1
  Rh  Rh3  1  0.75000000  0.75000112  0.75000338  1
