# generated using pymatgen
data_HfAlRu2
_symmetry_space_group_name_H-M   'P 1'
_cell_length_a   4.40202751
_cell_length_b   4.40207260
_cell_length_c   4.40200247
_cell_angle_alpha   60.00165158
_cell_angle_beta   59.99988050
_cell_angle_gamma   59.99962353
_symmetry_Int_Tables_number   1
_chemical_formula_structural   HfAlRu2
_chemical_formula_sum   'Hf1 Al1 Ru2'
_cell_volume   60.31829109
_cell_formula_units_Z   1
loop_
 _symmetry_equiv_pos_site_id
 _symmetry_equiv_pos_as_xyz
  1  'x, y, z'
loop_
 _atom_site_type_symbol
 _atom_site_label
 _atom_site_symmetry_multiplicity
 _atom_site_fract_x
 _atom_site_fract_y
 _atom_site_fract_z
 _atom_site_occupancy
  Hf  Hf0  1  0.75000133  0.74999867  0.74999874  1
  Al  Al1  1  0.25000173  0.24999827  0.24999831  1
  Ru  Ru2  1  0.00002987  0.99999103  0.00000173  1
  Ru  Ru3  1  0.49996707  0.50001204  0.50000222  1
