# generated using pymatgen
data_CaInHg2
_symmetry_space_group_name_H-M   'P 1'
_cell_length_a   5.16289509
_cell_length_b   5.16289509
_cell_length_c   5.16289509
_cell_angle_alpha   60.15768467
_cell_angle_beta   60.15768467
_cell_angle_gamma   60.15768467
_symmetry_Int_Tables_number   1
_chemical_formula_structural   CaInHg2
_chemical_formula_sum   'Ca1 In1 Hg2'
_cell_volume   97.65921678
_cell_formula_units_Z   1
loop_
 _symmetry_equiv_pos_site_id
 _symmetry_equiv_pos_as_xyz
  1  'x, y, z'
loop_
 _atom_site_type_symbol
 _atom_site_label
 _atom_site_symmetry_multiplicity
 _atom_site_fract_x
 _atom_site_fract_y
 _atom_site_fract_z
 _atom_site_occupancy
  Ca  Ca0  1  0.24999900  0.24999900  0.24999900  1
  In  In1  1  0.75000200  0.75000200  0.75000200  1
  Hg  Hg2  1  0.00032755  0.00032755  0.00032755  1
  Hg  Hg3  1  0.49967145  0.49967145  0.49967145  1
