# generated using pymatgen
data_Pm2NiRu
_symmetry_space_group_name_H-M   'P 1'
_cell_length_a   4.89742961
_cell_length_b   4.89742778
_cell_length_c   4.89742828
_cell_angle_alpha   60.00070935
_cell_angle_beta   60.00070477
_cell_angle_gamma   60.00068375
_symmetry_Int_Tables_number   1
_chemical_formula_structural   Pm2NiRu
_chemical_formula_sum   'Pm2 Ni1 Ru1'
_cell_volume   83.06082015
_cell_formula_units_Z   1
loop_
 _symmetry_equiv_pos_site_id
 _symmetry_equiv_pos_as_xyz
  1  'x, y, z'
loop_
 _atom_site_type_symbol
 _atom_site_label
 _atom_site_symmetry_multiplicity
 _atom_site_fract_x
 _atom_site_fract_y
 _atom_site_fract_z
 _atom_site_occupancy
  Pm  Pm0  1  0.00000018  0.00000017  0.00000017  1
  Pm  Pm1  1  0.50000051  0.50000050  0.50000050  1
  Ni  Ni2  1  0.24999911  0.24999914  0.24999914  1
  Ru  Ru3  1  0.74999921  0.74999919  0.74999919  1
