# generated using pymatgen
data_Sc3Hg
_symmetry_space_group_name_H-M   'P 1'
_cell_length_a   6.28818696
_cell_length_b   6.28818411
_cell_length_c   5.21294537
_cell_angle_alpha   90.00000077
_cell_angle_beta   89.99999910
_cell_angle_gamma   120.03655241
_symmetry_Int_Tables_number   1
_chemical_formula_structural   Sc3Hg
_chemical_formula_sum   'Sc6 Hg2'
_cell_volume   178.44501487
_cell_formula_units_Z   2
loop_
 _symmetry_equiv_pos_site_id
 _symmetry_equiv_pos_as_xyz
  1  'x, y, z'
loop_
 _atom_site_type_symbol
 _atom_site_label
 _atom_site_symmetry_multiplicity
 _atom_site_fract_x
 _atom_site_fract_y
 _atom_site_fract_z
 _atom_site_occupancy
  Sc  Sc0  1  0.17093582  0.34105231  0.25000000  1
  Sc  Sc1  1  0.65894684  0.82906374  0.25000000  1
  Sc  Sc2  1  0.17112459  0.82887802  0.24999999  1
  Sc  Sc3  1  0.82906855  0.65894656  0.75000000  1
  Sc  Sc4  1  0.34105427  0.17093627  0.75000000  1
  Sc  Sc5  1  0.82887852  0.17112076  0.75000001  1
  Hg  Hg6  1  0.33324054  0.66675566  0.75000000  1
  Hg  Hg7  1  0.66675487  0.33324269  0.25000000  1
