# generated using pymatgen
data_LuSnRu2
_symmetry_space_group_name_H-M   'P 1'
_cell_length_a   4.59064083
_cell_length_b   4.59064166
_cell_length_c   4.59064237
_cell_angle_alpha   59.99993152
_cell_angle_beta   59.99992581
_cell_angle_gamma   59.99995414
_symmetry_Int_Tables_number   1
_chemical_formula_structural   LuSnRu2
_chemical_formula_sum   'Lu1 Sn1 Ru2'
_cell_volume   68.40763134
_cell_formula_units_Z   1
loop_
 _symmetry_equiv_pos_site_id
 _symmetry_equiv_pos_as_xyz
  1  'x, y, z'
loop_
 _atom_site_type_symbol
 _atom_site_label
 _atom_site_symmetry_multiplicity
 _atom_site_fract_x
 _atom_site_fract_y
 _atom_site_fract_z
 _atom_site_occupancy
  Lu  Lu0  1  0.25000074  0.24999996  0.25000074  1
  Sn  Sn1  1  0.74999999  0.74999992  0.75000003  1
  Ru  Ru2  1  -0.00000012  0.00000010  0.00000008  1
  Ru  Ru3  1  0.49999939  0.49999902  0.49999914  1
