# generated using pymatgen
data_Na3(Pt3O4)4
_symmetry_space_group_name_H-M   'P 1'
_cell_length_a   8.03900520
_cell_length_b   8.03900345
_cell_length_c   8.03897960
_cell_angle_alpha   59.99991850
_cell_angle_beta   59.99993395
_cell_angle_gamma   59.99961263
_symmetry_Int_Tables_number   1
_chemical_formula_structural   Na3(Pt3O4)4
_chemical_formula_sum   'Na3 Pt12 O16'
_cell_volume   367.35731978
_cell_formula_units_Z   1
loop_
 _symmetry_equiv_pos_site_id
 _symmetry_equiv_pos_as_xyz
  1  'x, y, z'
loop_
 _atom_site_type_symbol
 _atom_site_label
 _atom_site_symmetry_multiplicity
 _atom_site_fract_x
 _atom_site_fract_y
 _atom_site_fract_z
 _atom_site_occupancy
  Na  Na0  1  0.50000093  0.49999980  0.50000002  1
  Na  Na1  1  0.74999966  0.74999955  0.74999966  1
  Na  Na2  1  0.25000033  0.25000044  0.25000031  1
  Pt  Pt3  1  0.87514704  0.37257393  0.12485234  1
  Pt  Pt4  1  0.62742613  0.12485284  0.37257385  1
  Pt  Pt5  1  0.87514601  0.12485393  0.62742658  1
  Pt  Pt6  1  0.87514959  0.62742338  0.37257698  1
  Pt  Pt7  1  0.37257684  0.12484990  0.87514960  1
  Pt  Pt8  1  0.62742574  0.37257214  0.87514770  1
  Pt  Pt9  1  0.37257444  0.87514766  0.62742601  1
  Pt  Pt10  1  0.12485164  0.62742570  0.87514827  1
  Pt  Pt11  1  0.37257372  0.62742610  0.12485330  1
  Pt  Pt12  1  0.62742385  0.87514960  0.12485024  1
  Pt  Pt13  1  0.12484977  0.37257670  0.62742318  1
  Pt  Pt14  1  0.12485461  0.87514758  0.37257195  1
  O  O15  1  0.62439016  0.12683301  0.62439076  1
  O  O16  1  0.87316604  0.37561035  0.37561388  1
  O  O17  1  0.87075897  0.87075389  0.38773381  1
  O  O18  1  0.37561329  0.37560827  0.87316801  1
  O  O19  1  0.87075327  0.38773375  0.87075369  1
  O  O20  1  0.61226587  0.12924492  0.12924231  1
  O  O21  1  0.12924664  0.12924247  0.12924437  1
  O  O22  1  0.62439078  0.62438510  0.62439096  1
  O  O23  1  0.12924574  0.61226510  0.12924690  1
  O  O24  1  0.87075344  0.87075864  0.87075437  1
  O  O25  1  0.38773497  0.87075386  0.87075790  1
  O  O26  1  0.62438605  0.62439032  0.12683384  1
  O  O27  1  0.37560907  0.37561354  0.37560966  1
  O  O28  1  0.12924162  0.12924657  0.61226513  1
  O  O29  1  0.37561058  0.87316803  0.37560845  1
  O  O30  1  0.12683220  0.62439096  0.62438598  1
