# generated using pymatgen
data_PmGa3
_symmetry_space_group_name_H-M   'P 1'
_cell_length_a   6.41414904
_cell_length_b   6.41414577
_cell_length_c   4.51210552
_cell_angle_alpha   90.00000000
_cell_angle_beta   90.00000000
_cell_angle_gamma   120.00008622
_symmetry_Int_Tables_number   1
_chemical_formula_structural   PmGa3
_chemical_formula_sum   'Pm2 Ga6'
_cell_volume   160.76347108
_cell_formula_units_Z   2
loop_
 _symmetry_equiv_pos_site_id
 _symmetry_equiv_pos_as_xyz
  1  'x, y, z'
loop_
 _atom_site_type_symbol
 _atom_site_label
 _atom_site_symmetry_multiplicity
 _atom_site_fract_x
 _atom_site_fract_y
 _atom_site_fract_z
 _atom_site_occupancy
  Pm  Pm0  1  0.33333300  0.66666800  0.74999900  1
  Pm  Pm1  1  0.66666700  0.33333300  0.24999900  1
  Ga  Ga2  1  0.14136502  0.28273004  0.24999900  1
  Ga  Ga3  1  0.71727096  0.85863598  0.24999900  1
  Ga  Ga4  1  0.14136302  0.85863598  0.24999900  1
  Ga  Ga5  1  0.85863598  0.71727196  0.74999900  1
  Ga  Ga6  1  0.28272704  0.14136302  0.74999900  1
  Ga  Ga7  1  0.85863598  0.14136402  0.74999900  1
