# generated using pymatgen
data_K2Mg(CO3)2
_symmetry_space_group_name_H-M   'P 1'
_cell_length_a   5.15645453
_cell_length_b   5.15645453
_cell_length_c   6.47540295
_cell_angle_alpha   65.64062217
_cell_angle_beta   65.64062217
_cell_angle_gamma   60.10448396
_symmetry_Int_Tables_number   1
_chemical_formula_structural   K2Mg(CO3)2
_chemical_formula_sum   'K2 Mg1 C2 O6'
_cell_volume   131.22800958
_cell_formula_units_Z   1
loop_
 _symmetry_equiv_pos_site_id
 _symmetry_equiv_pos_as_xyz
  1  'x, y, z'
loop_
 _atom_site_type_symbol
 _atom_site_label
 _atom_site_symmetry_multiplicity
 _atom_site_fract_x
 _atom_site_fract_y
 _atom_site_fract_z
 _atom_site_occupancy
  K  K0  1  0.78819821  0.78819821  0.63129824  1
  K  K1  1  0.21180179  0.21180179  0.36870176  1
  Mg  Mg2  1  0.00000000  0.00000000  0.00000000  1
  C  C3  1  0.40111077  0.40111077  0.78793738  1
  C  C4  1  0.59888923  0.59888923  0.21206262  1
  O  O5  1  0.26122616  0.26122616  0.77377791  1
  O  O6  1  0.73877384  0.73877384  0.22622209  1
  O  O7  1  0.25578813  0.68971709  0.78915734  1
  O  O8  1  0.68971709  0.25578813  0.78915734  1
  O  O9  1  0.74421187  0.31028291  0.21084266  1
  O  O10  1  0.31028291  0.74421187  0.21084266  1
