# generated using pymatgen
data_AcZn3
_symmetry_space_group_name_H-M   'P 1'
_cell_length_a   7.05949815
_cell_length_b   7.05948548
_cell_length_c   4.26138938
_cell_angle_alpha   90.00000000
_cell_angle_beta   90.00000000
_cell_angle_gamma   120.00030485
_symmetry_Int_Tables_number   1
_chemical_formula_structural   AcZn3
_chemical_formula_sum   'Ac2 Zn6'
_cell_volume   183.91933783
_cell_formula_units_Z   2
loop_
 _symmetry_equiv_pos_site_id
 _symmetry_equiv_pos_as_xyz
  1  'x, y, z'
loop_
 _atom_site_type_symbol
 _atom_site_label
 _atom_site_symmetry_multiplicity
 _atom_site_fract_x
 _atom_site_fract_y
 _atom_site_fract_z
 _atom_site_occupancy
  Ac  Ac0  1  0.33333400  0.66666700  0.74999900  1
  Ac  Ac1  1  0.66666700  0.33333300  0.25000000  1
  Zn  Zn2  1  0.12618138  0.25236277  0.24999900  1
  Zn  Zn3  1  0.74763723  0.87381762  0.25000000  1
  Zn  Zn4  1  0.12618138  0.87381762  0.25000000  1
  Zn  Zn5  1  0.87381862  0.74763723  0.74999900  1
  Zn  Zn6  1  0.25236277  0.12618238  0.74999900  1
  Zn  Zn7  1  0.87381862  0.12618238  0.74999900  1
