# generated using pymatgen
data_DyB4Mo
_symmetry_space_group_name_H-M   'P 1'
_cell_length_a   3.62077193
_cell_length_b   6.02009449
_cell_length_c   11.62813047
_cell_angle_alpha   90.00000000
_cell_angle_beta   90.00000000
_cell_angle_gamma   90.00000000
_symmetry_Int_Tables_number   1
_chemical_formula_structural   DyB4Mo
_chemical_formula_sum   'Dy4 B16 Mo4'
_cell_volume   253.46288489
_cell_formula_units_Z   4
loop_
 _symmetry_equiv_pos_site_id
 _symmetry_equiv_pos_as_xyz
  1  'x, y, z'
loop_
 _atom_site_type_symbol
 _atom_site_label
 _atom_site_symmetry_multiplicity
 _atom_site_fract_x
 _atom_site_fract_y
 _atom_site_fract_z
 _atom_site_occupancy
  Dy  Dy0  1  0.00000000  0.12748412  0.14957457  1
  Dy  Dy1  1  -0.00000000  0.87251588  0.85042543  1
  Dy  Dy2  1  0.00000000  0.62748412  0.35042543  1
  Dy  Dy3  1  0.00000000  0.37251588  0.64957457  1
  B  B4  1  0.50000000  0.47648081  0.19334973  1
  B  B5  1  0.50000000  0.52351919  0.80665027  1
  B  B6  1  0.50000000  0.97648081  0.30665027  1
  B  B7  1  0.50000000  0.02351919  0.69334973  1
  B  B8  1  0.50000000  0.28653294  0.31404584  1
  B  B9  1  0.50000000  0.71346706  0.68595416  1
  B  B10  1  0.50000000  0.78653294  0.18595416  1
  B  B11  1  0.50000000  0.21346706  0.81404584  1
  B  B12  1  0.50000000  0.36635254  0.46810849  1
  B  B13  1  0.50000000  0.63364746  0.53189151  1
  B  B14  1  0.50000000  0.86635254  0.03189151  1
  B  B15  1  0.50000000  0.13364746  0.96810849  1
  B  B16  1  0.50000000  0.38616782  0.04743427  1
  B  B17  1  0.50000000  0.61383218  0.95256573  1
  B  B18  1  0.50000000  0.88616782  0.45256573  1
  B  B19  1  0.50000000  0.11383218  0.54743427  1
  Mo  Mo20  1  -0.00000000  0.12899371  0.41690462  1
  Mo  Mo21  1  -0.00000000  0.87100629  0.58309538  1
  Mo  Mo22  1  0.00000000  0.62899371  0.08309538  1
  Mo  Mo23  1  -0.00000000  0.37100629  0.91690462  1
