# generated using pymatgen
data_HfCdRh2
_symmetry_space_group_name_H-M   'P 1'
_cell_length_a   4.52817298
_cell_length_b   4.52816650
_cell_length_c   4.52818016
_cell_angle_alpha   59.99994214
_cell_angle_beta   59.99998946
_cell_angle_gamma   59.99996322
_symmetry_Int_Tables_number   1
_chemical_formula_structural   HfCdRh2
_chemical_formula_sum   'Hf1 Cd1 Rh2'
_cell_volume   65.65287535
_cell_formula_units_Z   1
loop_
 _symmetry_equiv_pos_site_id
 _symmetry_equiv_pos_as_xyz
  1  'x, y, z'
loop_
 _atom_site_type_symbol
 _atom_site_label
 _atom_site_symmetry_multiplicity
 _atom_site_fract_x
 _atom_site_fract_y
 _atom_site_fract_z
 _atom_site_occupancy
  Hf  Hf0  1  0.75000000  0.75000000  0.75000000  1
  Cd  Cd1  1  0.25000000  0.25000000  0.25000000  1
  Rh  Rh2  1  -0.00000000  0.99999900  0.00000000  1
  Rh  Rh3  1  0.50000000  0.50000100  0.50000000  1
