# generated using pymatgen
data_TaGaFe2
_symmetry_space_group_name_H-M   'P 1'
_cell_length_a   4.14558241
_cell_length_b   4.14559159
_cell_length_c   4.14563503
_cell_angle_alpha   60.00075319
_cell_angle_beta   60.00069891
_cell_angle_gamma   60.00125802
_symmetry_Int_Tables_number   1
_chemical_formula_structural   TaGaFe2
_chemical_formula_sum   'Ta1 Ga1 Fe2'
_cell_volume   50.37986853
_cell_formula_units_Z   1
loop_
 _symmetry_equiv_pos_site_id
 _symmetry_equiv_pos_as_xyz
  1  'x, y, z'
loop_
 _atom_site_type_symbol
 _atom_site_label
 _atom_site_symmetry_multiplicity
 _atom_site_fract_x
 _atom_site_fract_y
 _atom_site_fract_z
 _atom_site_occupancy
  Ta  Ta0  1  0.74996855  0.75001037  0.75001949  1
  Ga  Ga1  1  0.25001300  0.24999134  0.24998953  1
  Fe  Fe2  1  0.00000692  -0.00000291  -0.00000453  1
  Fe  Fe3  1  0.50001154  0.50000120  0.49999552  1
