# generated using pymatgen
data_La(ZnAs)3
_symmetry_space_group_name_H-M   'P 1'
_cell_length_a   4.10140616
_cell_length_b   11.55224376
_cell_length_c   12.62368948
_cell_angle_alpha   90.00000000
_cell_angle_beta   90.00000000
_cell_angle_gamma   90.00000000
_symmetry_Int_Tables_number   1
_chemical_formula_structural   La(ZnAs)3
_chemical_formula_sum   'La4 Zn12 As12'
_cell_volume   598.11600893
_cell_formula_units_Z   4
loop_
 _symmetry_equiv_pos_site_id
 _symmetry_equiv_pos_as_xyz
  1  'x, y, z'
loop_
 _atom_site_type_symbol
 _atom_site_label
 _atom_site_symmetry_multiplicity
 _atom_site_fract_x
 _atom_site_fract_y
 _atom_site_fract_z
 _atom_site_occupancy
  La  La0  1  0.75000000  0.94103196  0.33769963  1
  La  La1  1  0.25000000  0.44103196  0.16230037  1
  La  La2  1  0.75000000  0.55896804  0.83769963  1
  La  La3  1  0.25000000  0.05896804  0.66230037  1
  Zn  Zn4  1  0.75000000  0.23597805  0.44959544  1
  Zn  Zn5  1  0.25000000  0.73597805  0.05040456  1
  Zn  Zn6  1  0.75000000  0.26402195  0.94959544  1
  Zn  Zn7  1  0.25000000  0.76402195  0.55040456  1
  Zn  Zn8  1  0.75000000  0.65411873  0.27669940  1
  Zn  Zn9  1  0.25000000  0.15411873  0.22330060  1
  Zn  Zn10  1  0.75000000  0.84588127  0.77669940  1
  Zn  Zn11  1  0.25000000  0.34588127  0.72330060  1
  Zn  Zn12  1  0.75000000  0.03680152  0.06630390  1
  Zn  Zn13  1  0.25000000  0.53680152  0.43369610  1
  Zn  Zn14  1  0.75000000  0.46319848  0.56630390  1
  Zn  Zn15  1  0.25000000  0.96319848  0.93369610  1
  As  As16  1  0.75000000  0.43459758  0.36157620  1
  As  As17  1  0.25000000  0.93459758  0.13842380  1
  As  As18  1  0.75000000  0.06540242  0.86157620  1
  As  As19  1  0.25000000  0.56540242  0.63842380  1
  As  As20  1  0.75000000  0.23745227  0.14656387  1
  As  As21  1  0.25000000  0.73745227  0.35343613  1
  As  As22  1  0.75000000  0.26254773  0.64656387  1
  As  As23  1  0.25000000  0.76254773  0.85343613  1
  As  As24  1  0.75000000  0.61870817  0.08460194  1
  As  As25  1  0.25000000  0.11870817  0.41539806  1
  As  As26  1  0.75000000  0.88129183  0.58460194  1
  As  As27  1  0.25000000  0.38129183  0.91539806  1
