# generated using pymatgen
data_ScGaRu2
_symmetry_space_group_name_H-M   'P 1'
_cell_length_a   4.38065444
_cell_length_b   4.38065289
_cell_length_c   4.38065275
_cell_angle_alpha   60.00012900
_cell_angle_beta   60.00008463
_cell_angle_gamma   60.00008559
_symmetry_Int_Tables_number   1
_chemical_formula_structural   ScGaRu2
_chemical_formula_sum   'Sc1 Ga1 Ru2'
_cell_volume   59.44326437
_cell_formula_units_Z   1
loop_
 _symmetry_equiv_pos_site_id
 _symmetry_equiv_pos_as_xyz
  1  'x, y, z'
loop_
 _atom_site_type_symbol
 _atom_site_label
 _atom_site_symmetry_multiplicity
 _atom_site_fract_x
 _atom_site_fract_y
 _atom_site_fract_z
 _atom_site_occupancy
  Sc  Sc0  1  0.74999915  0.75000162  0.74999916  1
  Ga  Ga1  1  0.25000071  0.25000002  0.25000070  1
  Ru  Ru2  1  0.00000013  0.00000024  0.00000013  1
  Ru  Ru3  1  0.49999902  0.49999913  0.49999901  1
