# generated using pymatgen
data_Lu2OsPd
_symmetry_space_group_name_H-M   'P 1'
_cell_length_a   4.74179174
_cell_length_b   4.74034708
_cell_length_c   4.74104700
_cell_angle_alpha   59.99284009
_cell_angle_beta   60.00474543
_cell_angle_gamma   59.99948274
_symmetry_Int_Tables_number   1
_chemical_formula_structural   Lu2OsPd
_chemical_formula_sum   'Lu2 Os1 Pd1'
_cell_volume   75.35329491
_cell_formula_units_Z   1
loop_
 _symmetry_equiv_pos_site_id
 _symmetry_equiv_pos_as_xyz
  1  'x, y, z'
loop_
 _atom_site_type_symbol
 _atom_site_label
 _atom_site_symmetry_multiplicity
 _atom_site_fract_x
 _atom_site_fract_y
 _atom_site_fract_z
 _atom_site_occupancy
  Lu  Lu0  1  0.00000469  0.99999531  0.99999549  1
  Lu  Lu1  1  0.49999410  0.50000054  0.50000284  1
  Os  Os2  1  0.25000410  0.24999948  0.24999914  1
  Pd  Pd3  1  0.74999611  0.75000466  0.75000254  1
