# generated using pymatgen
data_CeB2C
_symmetry_space_group_name_H-M   'P 1'
_cell_length_a   5.35511680
_cell_length_b   5.35511642
_cell_length_c   5.35511562
_cell_angle_alpha   76.25787249
_cell_angle_beta   76.25788283
_cell_angle_gamma   76.25792966
_symmetry_Int_Tables_number   1
_chemical_formula_structural   CeB2C
_chemical_formula_sum   'Ce3 B6 C3'
_cell_volume   142.20938359
_cell_formula_units_Z   3
loop_
 _symmetry_equiv_pos_site_id
 _symmetry_equiv_pos_as_xyz
  1  'x, y, z'
loop_
 _atom_site_type_symbol
 _atom_site_label
 _atom_site_symmetry_multiplicity
 _atom_site_fract_x
 _atom_site_fract_y
 _atom_site_fract_z
 _atom_site_occupancy
  Ce  Ce0  1  0.68681102  0.68681102  0.68681102  1
  Ce  Ce1  1  0.31318898  0.31318898  0.31318898  1
  Ce  Ce2  1  0.00000000  -0.00000000  0.00000000  1
  B  B3  1  0.77538825  0.50000000  0.22461175  1
  B  B4  1  0.50000000  0.22461175  0.77538825  1
  B  B5  1  0.22461075  0.77538925  0.50000000  1
  B  B6  1  0.22461175  0.50000000  0.77538825  1
  B  B7  1  0.77538925  0.22461075  0.50000000  1
  B  B8  1  0.50000000  0.77538825  0.22461175  1
  C  C9  1  0.00000000  -0.00000000  0.50000000  1
  C  C10  1  0.50000000  -0.00000000  0.00000000  1
  C  C11  1  0.00000000  0.50000000  0.00000000  1
