# generated using pymatgen
data_ErTaOs2
_symmetry_space_group_name_H-M   'P 1'
_cell_length_a   4.60089917
_cell_length_b   4.59985540
_cell_length_c   4.59992841
_cell_angle_alpha   59.99070603
_cell_angle_beta   59.98693241
_cell_angle_gamma   59.98407222
_symmetry_Int_Tables_number   1
_chemical_formula_structural   ErTaOs2
_chemical_formula_sum   'Er1 Ta1 Os2'
_cell_volume   68.81724243
_cell_formula_units_Z   1
loop_
 _symmetry_equiv_pos_site_id
 _symmetry_equiv_pos_as_xyz
  1  'x, y, z'
loop_
 _atom_site_type_symbol
 _atom_site_label
 _atom_site_symmetry_multiplicity
 _atom_site_fract_x
 _atom_site_fract_y
 _atom_site_fract_z
 _atom_site_occupancy
  Er  Er0  1  0.24999900  0.25000000  0.24999900  1
  Ta  Ta1  1  0.75000000  0.74999800  0.75000000  1
  Os  Os2  1  1.00007658  0.99998646  1.00001316  1
  Os  Os3  1  0.49992042  0.50001354  0.49998484  1
