# generated using pymatgen
data_Pr4Ge7
_symmetry_space_group_name_H-M   'P 1'
_cell_length_a   7.65382978
_cell_length_b   7.65382978
_cell_length_c   12.14950889
_cell_angle_alpha   90.00000000
_cell_angle_beta   90.00000000
_cell_angle_gamma   46.74090634
_symmetry_Int_Tables_number   1
_chemical_formula_structural   Pr4Ge7
_chemical_formula_sum   'Pr8 Ge14'
_cell_volume   518.32731682
_cell_formula_units_Z   2
loop_
 _symmetry_equiv_pos_site_id
 _symmetry_equiv_pos_as_xyz
  1  'x, y, z'
loop_
 _atom_site_type_symbol
 _atom_site_label
 _atom_site_symmetry_multiplicity
 _atom_site_fract_x
 _atom_site_fract_y
 _atom_site_fract_z
 _atom_site_occupancy
  Pr  Pr0  1  0.48062404  0.00918577  0.38076216  1
  Pr  Pr1  1  0.51937696  0.99081423  0.88076216  1
  Pr  Pr2  1  0.99081423  0.51937696  0.61923884  1
  Pr  Pr3  1  0.00918577  0.48062404  0.11923784  1
  Pr  Pr4  1  0.01088897  0.98911103  -0.00000000  1
  Pr  Pr5  1  0.98911103  0.01088897  0.50000000  1
  Pr  Pr6  1  0.50316601  0.50316601  0.25000000  1
  Pr  Pr7  1  0.49683399  0.49683399  0.75000000  1
  Ge  Ge8  1  0.67085271  0.02590645  0.16042194  1
  Ge  Ge9  1  0.32914829  0.97409355  0.66042194  1
  Ge  Ge10  1  0.97409355  0.32914829  0.83957806  1
  Ge  Ge11  1  0.02590645  0.67085271  0.33957806  1
  Ge  Ge12  1  0.41913105  0.92332297  0.12812137  1
  Ge  Ge13  1  0.58086995  0.07667803  0.62812137  1
  Ge  Ge14  1  0.07667803  0.58086995  0.87187863  1
  Ge  Ge15  1  0.92332297  0.41913105  0.37187763  1
  Ge  Ge16  1  0.42827983  0.39701800  0.00990557  1
  Ge  Ge17  1  0.57172017  0.60298300  0.50990557  1
  Ge  Ge18  1  0.60298300  0.57172017  0.99009443  1
  Ge  Ge19  1  0.39701800  0.42827983  0.49009443  1
  Ge  Ge20  1  0.06662576  0.06662576  0.25000000  1
  Ge  Ge21  1  0.93337324  0.93337324  0.75000000  1
