# generated using pymatgen
data_TiZnRh2
_symmetry_space_group_name_H-M   'P 1'
_cell_length_a   4.28016057
_cell_length_b   4.28022660
_cell_length_c   4.28081012
_cell_angle_alpha   60.00235304
_cell_angle_beta   60.00336573
_cell_angle_gamma   60.01204321
_symmetry_Int_Tables_number   1
_chemical_formula_structural   TiZnRh2
_chemical_formula_sum   'Ti1 Zn1 Rh2'
_cell_volume   55.46207003
_cell_formula_units_Z   1
loop_
 _symmetry_equiv_pos_site_id
 _symmetry_equiv_pos_as_xyz
  1  'x, y, z'
loop_
 _atom_site_type_symbol
 _atom_site_label
 _atom_site_symmetry_multiplicity
 _atom_site_fract_x
 _atom_site_fract_y
 _atom_site_fract_z
 _atom_site_occupancy
  Ti  Ti0  1  0.25000410  0.24999613  0.24999759  1
  Zn  Zn1  1  0.74999759  0.75000181  0.75000253  1
  Rh  Rh2  1  -0.00000122  0.00000120  -0.00000625  1
  Rh  Rh3  1  0.50000053  0.50000187  0.50000713  1
