# generated using pymatgen
data_Pr5Al2Ru3
_symmetry_space_group_name_H-M   'P 1'
_cell_length_a   8.57985719
_cell_length_b   8.57985719
_cell_length_c   8.57985719
_cell_angle_alpha   109.47122063
_cell_angle_beta   109.47122063
_cell_angle_gamma   109.47122063
_symmetry_Int_Tables_number   1
_chemical_formula_structural   Pr5Al2Ru3
_chemical_formula_sum   'Pr10 Al4 Ru6'
_cell_volume   486.20373102
_cell_formula_units_Z   2
loop_
 _symmetry_equiv_pos_site_id
 _symmetry_equiv_pos_as_xyz
  1  'x, y, z'
loop_
 _atom_site_type_symbol
 _atom_site_label
 _atom_site_symmetry_multiplicity
 _atom_site_fract_x
 _atom_site_fract_y
 _atom_site_fract_z
 _atom_site_occupancy
  Pr  Pr0  1  0.25000000  0.68430454  0.43430554  1
  Pr  Pr1  1  0.75000000  0.81569546  0.06569546  1
  Pr  Pr2  1  0.43430554  0.25000000  0.68430454  1
  Pr  Pr3  1  0.68430454  0.43430554  0.25000000  1
  Pr  Pr4  1  0.06569546  0.75000000  0.81569546  1
  Pr  Pr5  1  0.81569546  0.06569546  0.75000000  1
  Pr  Pr6  1  0.21327168  0.21327168  0.21327168  1
  Pr  Pr7  1  0.50000100  -0.00000000  0.28672832  1
  Pr  Pr8  1  0.28672832  0.50000100  -0.00000000  1
  Pr  Pr9  1  -0.00000000  0.28672832  0.50000100  1
  Al  Al10  1  0.58895551  0.58895551  0.58895551  1
  Al  Al11  1  0.50000100  -0.00000000  0.91104449  1
  Al  Al12  1  0.91104449  0.50000100  -0.00000000  1
  Al  Al13  1  0.00000000  0.91104449  0.50000100  1
  Ru  Ru14  1  0.25000100  0.11586499  0.86586599  1
  Ru  Ru15  1  0.75000000  0.38413301  0.63413401  1
  Ru  Ru16  1  0.86586599  0.25000100  0.11586499  1
  Ru  Ru17  1  0.11586499  0.86586599  0.25000100  1
  Ru  Ru18  1  0.63413401  0.75000000  0.38413301  1
  Ru  Ru19  1  0.38413301  0.63413401  0.75000000  1
