# generated using pymatgen
data_AgGeO3
_symmetry_space_group_name_H-M   'P 1'
_cell_length_a   3.17038300
_cell_length_b   5.15847500
_cell_length_c   9.30865200
_cell_angle_alpha   90.00000000
_cell_angle_beta   90.00000000
_cell_angle_gamma   90.00000000
_symmetry_Int_Tables_number   1
_chemical_formula_structural   AgGeO3
_chemical_formula_sum   'Ag2 Ge2 O6'
_cell_volume   152.23687321
_cell_formula_units_Z   2
loop_
 _symmetry_equiv_pos_site_id
 _symmetry_equiv_pos_as_xyz
  1  'x, y, z'
loop_
 _atom_site_type_symbol
 _atom_site_label
 _atom_site_symmetry_multiplicity
 _atom_site_fract_x
 _atom_site_fract_y
 _atom_site_fract_z
 _atom_site_occupancy
  Ag  Ag0  1  0.50000000  0.50336200  0.00171700  1
  Ag  Ag1  1  0.50000000  0.49663800  0.50171700  1
  Ge  Ge2  1  0.00000000  0.90915700  0.75217500  1
  Ge  Ge3  1  0.00000000  0.09084300  0.25217500  1
  O  O4  1  0.00000000  0.71392600  0.59459500  1
  O  O5  1  0.00000000  0.72189900  0.91143500  1
  O  O6  1  0.50000000  0.91296600  0.24776200  1
  O  O7  1  0.50000000  0.08703400  0.74776200  1
  O  O8  1  0.00000000  0.27810100  0.41143500  1
  O  O9  1  0.00000000  0.28607400  0.09459500  1
