# generated using pymatgen
data_Tm(SiRh)2
_symmetry_space_group_name_H-M   'P 1'
_cell_length_a   4.01791418
_cell_length_b   4.01791425
_cell_length_c   5.69831598
_cell_angle_alpha   110.64353409
_cell_angle_beta   110.64353885
_cell_angle_gamma   89.99998874
_symmetry_Int_Tables_number   1
_chemical_formula_structural   Tm(SiRh)2
_chemical_formula_sum   'Tm1 Si2 Rh2'
_cell_volume   79.74201774
_cell_formula_units_Z   1
loop_
 _symmetry_equiv_pos_site_id
 _symmetry_equiv_pos_as_xyz
  1  'x, y, z'
loop_
 _atom_site_type_symbol
 _atom_site_label
 _atom_site_symmetry_multiplicity
 _atom_site_fract_x
 _atom_site_fract_y
 _atom_site_fract_z
 _atom_site_occupancy
  Tm  Tm0  1  -0.00000000  -0.00000000  0.00000000  1
  Si  Si1  1  0.62097723  0.62097723  0.24195446  1
  Si  Si2  1  0.37902277  0.37902277  0.75804554  1
  Rh  Rh3  1  0.25000000  0.75000000  0.50000000  1
  Rh  Rh4  1  0.75000000  0.25000000  0.50000000  1
