# generated using pymatgen
data_SmCuP2
_symmetry_space_group_name_H-M   'P 1'
_cell_length_a   3.75986401
_cell_length_b   3.75986389
_cell_length_c   10.29612927
_cell_angle_alpha   100.52045453
_cell_angle_beta   100.52045008
_cell_angle_gamma   89.99999125
_symmetry_Int_Tables_number   1
_chemical_formula_structural   SmCuP2
_chemical_formula_sum   'Sm2 Cu2 P4'
_cell_volume   140.61593760
_cell_formula_units_Z   2
loop_
 _symmetry_equiv_pos_site_id
 _symmetry_equiv_pos_as_xyz
  1  'x, y, z'
loop_
 _atom_site_type_symbol
 _atom_site_label
 _atom_site_symmetry_multiplicity
 _atom_site_fract_x
 _atom_site_fract_y
 _atom_site_fract_z
 _atom_site_occupancy
  Sm  Sm0  1  0.88371003  0.88371003  0.76742007  1
  Sm  Sm1  1  0.11628997  0.11628997  0.23257993  1
  Cu  Cu2  1  0.75000000  0.25000000  0.50000000  1
  Cu  Cu3  1  0.25000000  0.75000000  0.50000000  1
  P  P4  1  0.67658541  0.67658541  0.35317082  1
  P  P5  1  0.32341459  0.32341459  0.64682918  1
  P  P6  1  0.50000000  -0.00000000  0.00000000  1
  P  P7  1  0.00000000  0.50000000  0.00000000  1
