# generated using pymatgen
data_Na3UF8
_symmetry_space_group_name_H-M   'P 1'
_cell_length_a   6.57700120
_cell_length_b   6.57698060
_cell_length_c   6.57725824
_cell_angle_alpha   131.62292582
_cell_angle_beta   131.79991184
_cell_angle_gamma   70.68915562
_symmetry_Int_Tables_number   1
_chemical_formula_structural   Na3UF8
_chemical_formula_sum   'Na3 U1 F8'
_cell_volume   155.31191292
_cell_formula_units_Z   1
loop_
 _symmetry_equiv_pos_site_id
 _symmetry_equiv_pos_as_xyz
  1  'x, y, z'
loop_
 _atom_site_type_symbol
 _atom_site_label
 _atom_site_symmetry_multiplicity
 _atom_site_fract_x
 _atom_site_fract_y
 _atom_site_fract_z
 _atom_site_occupancy
  Na  Na0  1  0.49999995  0.49999997  -0.00000005  1
  Na  Na1  1  0.24996074  0.74996421  0.50000137  1
  Na  Na2  1  0.75003919  0.25003568  0.49999852  1
  U  U3  1  -0.00000005  -0.00000002  -0.00000003  1
  F  F4  1  0.88289659  0.88275179  0.52977866  1
  F  F5  1  0.88291175  0.35313470  0.00016344  1
  F  F6  1  0.35298746  0.88276969  0.99987397  1
  F  F7  1  0.35297970  0.35312098  0.47021731  1
  F  F8  1  0.64702022  0.64687907  0.52978267  1
  F  F9  1  0.64701275  0.11723044  0.00012635  1
  F  F10  1  0.11708828  0.64686537  0.99983648  1
  F  F11  1  0.11710343  0.11724812  0.47022130  1
