# generated using pymatgen
data_TaMn2Ge
_symmetry_space_group_name_H-M   'P 1'
_cell_length_a   4.18074871
_cell_length_b   4.18103135
_cell_length_c   4.18094355
_cell_angle_alpha   60.02470710
_cell_angle_beta   60.02458808
_cell_angle_gamma   60.02340082
_symmetry_Int_Tables_number   1
_chemical_formula_structural   TaMn2Ge
_chemical_formula_sum   'Ta1 Mn2 Ge1'
_cell_volume   51.70532764
_cell_formula_units_Z   1
loop_
 _symmetry_equiv_pos_site_id
 _symmetry_equiv_pos_as_xyz
  1  'x, y, z'
loop_
 _atom_site_type_symbol
 _atom_site_label
 _atom_site_symmetry_multiplicity
 _atom_site_fract_x
 _atom_site_fract_y
 _atom_site_fract_z
 _atom_site_occupancy
  Ta  Ta0  1  0.75000877  0.74999959  0.74998677  1
  Mn  Mn1  1  0.49987184  0.49996973  0.49990332  1
  Mn  Mn2  1  0.00013190  0.00003538  0.00009376  1
  Ge  Ge3  1  0.24998849  0.24999630  0.25001715  1
