# generated using pymatgen
data_ScGaIr2
_symmetry_space_group_name_H-M   'P 1'
_cell_length_a   4.40219554
_cell_length_b   4.40201086
_cell_length_c   4.40213995
_cell_angle_alpha   59.95759534
_cell_angle_beta   59.96807072
_cell_angle_gamma   59.97156245
_symmetry_Int_Tables_number   1
_chemical_formula_structural   ScGaIr2
_chemical_formula_sum   'Sc1 Ga1 Ir2'
_cell_volume   60.27424148
_cell_formula_units_Z   1
loop_
 _symmetry_equiv_pos_site_id
 _symmetry_equiv_pos_as_xyz
  1  'x, y, z'
loop_
 _atom_site_type_symbol
 _atom_site_label
 _atom_site_symmetry_multiplicity
 _atom_site_fract_x
 _atom_site_fract_y
 _atom_site_fract_z
 _atom_site_occupancy
  Sc  Sc0  1  0.75000070  0.74999497  0.74999904  1
  Ga  Ga1  1  0.24999694  0.25000385  0.25000059  1
  Ir  Ir2  1  0.50022211  0.49993038  0.49992997  1
  Ir  Ir3  1  0.99977825  0.00006981  0.00006940  1
