# generated using pymatgen
data_PaI3
_symmetry_space_group_name_H-M   'P 1'
_cell_length_a   11.37858338
_cell_length_b   11.38398670
_cell_length_c   3.97961737
_cell_angle_alpha   89.98312226
_cell_angle_beta   90.05201724
_cell_angle_gamma   120.02746090
_symmetry_Int_Tables_number   1
_chemical_formula_structural   PaI3
_chemical_formula_sum   'Pa2 I6'
_cell_volume   446.30740943
_cell_formula_units_Z   2
loop_
 _symmetry_equiv_pos_site_id
 _symmetry_equiv_pos_as_xyz
  1  'x, y, z'
loop_
 _atom_site_type_symbol
 _atom_site_label
 _atom_site_symmetry_multiplicity
 _atom_site_fract_x
 _atom_site_fract_y
 _atom_site_fract_z
 _atom_site_occupancy
  Pa  Pa0  1  0.66670691  0.33335429  0.25004221  1
  Pa  Pa1  1  0.33330124  0.66666544  0.75001472  1
  I  I2  1  0.79013000  0.21111720  0.75043266  1
  I  I3  1  0.42091060  0.20994375  0.74967894  1
  I  I4  1  0.78905573  0.57902340  0.75002094  1
  I  I5  1  0.21061624  0.78960273  0.24958352  1
  I  I6  1  0.57906518  0.78929110  0.25047186  1
  I  I7  1  0.21021710  0.42100009  0.24975815  1
