# generated using pymatgen
data_TmZnRh2
_symmetry_space_group_name_H-M   'P 1'
_cell_length_a   4.48579129
_cell_length_b   4.48579490
_cell_length_c   4.48579273
_cell_angle_alpha   60.00000532
_cell_angle_beta   59.99995745
_cell_angle_gamma   59.99999468
_symmetry_Int_Tables_number   1
_chemical_formula_structural   TmZnRh2
_chemical_formula_sum   'Tm1 Zn1 Rh2'
_cell_volume   63.82672210
_cell_formula_units_Z   1
loop_
 _symmetry_equiv_pos_site_id
 _symmetry_equiv_pos_as_xyz
  1  'x, y, z'
loop_
 _atom_site_type_symbol
 _atom_site_label
 _atom_site_symmetry_multiplicity
 _atom_site_fract_x
 _atom_site_fract_y
 _atom_site_fract_z
 _atom_site_occupancy
  Tm  Tm0  1  0.24999900  0.24999900  0.24999900  1
  Zn  Zn1  1  0.75000100  0.75000100  0.75000100  1
  Rh  Rh2  1  0.99999900  0.00000100  0.00000000  1
  Rh  Rh3  1  0.50000100  0.49999900  0.49999900  1
