# generated using pymatgen
data_PaTe3
_symmetry_space_group_name_H-M   'P 1'
_cell_length_a   6.69256944
_cell_length_b   6.69262541
_cell_length_c   5.82769767
_cell_angle_alpha   89.99535454
_cell_angle_beta   89.99486507
_cell_angle_gamma   120.00136713
_symmetry_Int_Tables_number   1
_chemical_formula_structural   PaTe3
_chemical_formula_sum   'Pa2 Te6'
_cell_volume   226.05340847
_cell_formula_units_Z   2
loop_
 _symmetry_equiv_pos_site_id
 _symmetry_equiv_pos_as_xyz
  1  'x, y, z'
loop_
 _atom_site_type_symbol
 _atom_site_label
 _atom_site_symmetry_multiplicity
 _atom_site_fract_x
 _atom_site_fract_y
 _atom_site_fract_z
 _atom_site_occupancy
  Pa  Pa0  1  0.66666721  0.33333423  0.25000057  1
  Pa  Pa1  1  0.33333004  0.66666894  0.74999815  1
  Te  Te2  1  0.82415720  0.17583546  0.75001051  1
  Te  Te3  1  0.35162528  0.17583179  0.75002083  1
  Te  Te4  1  0.82417267  0.64837176  0.74997964  1
  Te  Te5  1  0.17584827  0.82414413  0.25000138  1
  Te  Te6  1  0.64837503  0.82418550  0.24997241  1
  Te  Te7  1  0.17582629  0.35162817  0.25001051  1
