# generated using pymatgen
data_MnPSe3
_symmetry_space_group_name_H-M   'P 1'
_cell_length_a   7.83181751
_cell_length_b   7.83181577
_cell_length_c   7.83181742
_cell_angle_alpha   48.22903535
_cell_angle_beta   48.22902317
_cell_angle_gamma   48.22902874
_symmetry_Int_Tables_number   1
_chemical_formula_structural   MnPSe3
_chemical_formula_sum   'Mn2 P2 Se6'
_cell_volume   244.92095213
_cell_formula_units_Z   2
loop_
 _symmetry_equiv_pos_site_id
 _symmetry_equiv_pos_as_xyz
  1  'x, y, z'
loop_
 _atom_site_type_symbol
 _atom_site_label
 _atom_site_symmetry_multiplicity
 _atom_site_fract_x
 _atom_site_fract_y
 _atom_site_fract_z
 _atom_site_occupancy
  Mn  Mn0  1  0.83238286  0.83238286  0.83238286  1
  Mn  Mn1  1  0.16761714  0.16761714  0.16761714  1
  P  P2  1  0.55357939  0.55357939  0.55357939  1
  P  P3  1  0.44642061  0.44642061  0.44642061  1
  Se  Se4  1  0.41514393  0.74941380  0.08893301  1
  Se  Se5  1  0.08893301  0.41514393  0.74941380  1
  Se  Se6  1  0.74941380  0.08893301  0.41514393  1
  Se  Se7  1  0.58485607  0.25058620  0.91106699  1
  Se  Se8  1  0.91106699  0.58485607  0.25058620  1
  Se  Se9  1  0.25058620  0.91106699  0.58485607  1
