# generated using pymatgen
data_Sr(PRh)2
_symmetry_space_group_name_H-M   'P 1'
_cell_length_a   3.92292528
_cell_length_b   3.92292532
_cell_length_c   6.60803528
_cell_angle_alpha   107.26729056
_cell_angle_beta   107.26728061
_cell_angle_gamma   90.00001158
_symmetry_Int_Tables_number   1
_chemical_formula_structural   Sr(PRh)2
_chemical_formula_sum   'Sr1 P2 Rh2'
_cell_volume   92.29946231
_cell_formula_units_Z   1
loop_
 _symmetry_equiv_pos_site_id
 _symmetry_equiv_pos_as_xyz
  1  'x, y, z'
loop_
 _atom_site_type_symbol
 _atom_site_label
 _atom_site_symmetry_multiplicity
 _atom_site_fract_x
 _atom_site_fract_y
 _atom_site_fract_z
 _atom_site_occupancy
  Sr  Sr0  1  0.00000000  0.00000000  0.00000000  1
  P  P1  1  0.64243423  0.64243423  0.28486646  1
  P  P2  1  0.35756577  0.35756577  0.71513354  1
  Rh  Rh3  1  0.75000000  0.25000000  0.50000000  1
  Rh  Rh4  1  0.25000000  0.75000000  0.50000000  1
