# generated using pymatgen
data_CeSiRu
_symmetry_space_group_name_H-M   'P 1'
_cell_length_a   4.21531163
_cell_length_b   4.21531163
_cell_length_c   6.89851435
_cell_angle_alpha   90.00000000
_cell_angle_beta   90.00000000
_cell_angle_gamma   90.00000000
_symmetry_Int_Tables_number   1
_chemical_formula_structural   CeSiRu
_chemical_formula_sum   'Ce2 Si2 Ru2'
_cell_volume   122.57868146
_cell_formula_units_Z   2
loop_
 _symmetry_equiv_pos_site_id
 _symmetry_equiv_pos_as_xyz
  1  'x, y, z'
loop_
 _atom_site_type_symbol
 _atom_site_label
 _atom_site_symmetry_multiplicity
 _atom_site_fract_x
 _atom_site_fract_y
 _atom_site_fract_z
 _atom_site_occupancy
  Ce  Ce0  1  0.25000000  0.25000000  0.67958133  1
  Ce  Ce1  1  0.75000000  0.75000000  0.32041867  1
  Si  Si2  1  0.25000000  0.25000000  0.17388342  1
  Si  Si3  1  0.75000000  0.75000000  0.82611658  1
  Ru  Ru4  1  0.75000000  0.25000000  -0.00000000  1
  Ru  Ru5  1  0.25000000  0.75000000  -0.00000000  1
