# generated using pymatgen
data_Pm2SiAg
_symmetry_space_group_name_H-M   'P 1'
_cell_length_a   5.16376444
_cell_length_b   5.16376371
_cell_length_c   5.16376224
_cell_angle_alpha   60.00002818
_cell_angle_beta   60.00000471
_cell_angle_gamma   60.00002346
_symmetry_Int_Tables_number   1
_chemical_formula_structural   Pm2SiAg
_chemical_formula_sum   'Pm2 Si1 Ag1'
_cell_volume   97.36081668
_cell_formula_units_Z   1
loop_
 _symmetry_equiv_pos_site_id
 _symmetry_equiv_pos_as_xyz
  1  'x, y, z'
loop_
 _atom_site_type_symbol
 _atom_site_label
 _atom_site_symmetry_multiplicity
 _atom_site_fract_x
 _atom_site_fract_y
 _atom_site_fract_z
 _atom_site_occupancy
  Pm  Pm0  1  0.00000000  -0.00000000  -0.00000000  1
  Pm  Pm1  1  0.50000100  0.50000100  0.50000100  1
  Si  Si2  1  0.75000000  0.75000000  0.75000000  1
  Ag  Ag3  1  0.24999900  0.24999900  0.24999900  1
