# generated using pymatgen
data_Tc3Rh
_symmetry_space_group_name_H-M   'P 1'
_cell_length_a   5.48342828
_cell_length_b   5.48342063
_cell_length_c   4.32565485
_cell_angle_alpha   89.99987416
_cell_angle_beta   90.00012976
_cell_angle_gamma   120.00076285
_symmetry_Int_Tables_number   1
_chemical_formula_structural   Tc3Rh
_chemical_formula_sum   'Tc6 Rh2'
_cell_volume   112.63746980
_cell_formula_units_Z   2
loop_
 _symmetry_equiv_pos_site_id
 _symmetry_equiv_pos_as_xyz
  1  'x, y, z'
loop_
 _atom_site_type_symbol
 _atom_site_label
 _atom_site_symmetry_multiplicity
 _atom_site_fract_x
 _atom_site_fract_y
 _atom_site_fract_z
 _atom_site_occupancy
  Tc  Tc0  1  0.15963856  0.31926454  0.24998304  1
  Tc  Tc1  1  0.68073590  0.84035991  0.24998304  1
  Tc  Tc2  1  0.15963143  0.84036533  0.24998628  1
  Tc  Tc3  1  0.84036023  0.68073247  0.75001943  1
  Tc  Tc4  1  0.31926718  0.15964015  0.75001943  1
  Tc  Tc5  1  0.84036606  0.15963466  0.75001632  1
  Rh  Rh6  1  0.33332948  0.66667402  0.74998164  1
  Rh  Rh7  1  0.66667117  0.33332692  0.25002082  1
