# generated using pymatgen
data_Lu2IrPd
_symmetry_space_group_name_H-M   'P 1'
_cell_length_a   4.75798558
_cell_length_b   4.75798630
_cell_length_c   4.75798613
_cell_angle_alpha   60.00000270
_cell_angle_beta   59.99999036
_cell_angle_gamma   59.99998943
_symmetry_Int_Tables_number   1
_chemical_formula_structural   Lu2IrPd
_chemical_formula_sum   'Lu2 Ir1 Pd1'
_cell_volume   76.16482081
_cell_formula_units_Z   1
loop_
 _symmetry_equiv_pos_site_id
 _symmetry_equiv_pos_as_xyz
  1  'x, y, z'
loop_
 _atom_site_type_symbol
 _atom_site_label
 _atom_site_symmetry_multiplicity
 _atom_site_fract_x
 _atom_site_fract_y
 _atom_site_fract_z
 _atom_site_occupancy
  Lu  Lu0  1  0.00000002  -0.00000008  -0.00000010  1
  Lu  Lu1  1  0.50000088  0.50000086  0.50000085  1
  Ir  Ir2  1  0.24999915  0.24999916  0.24999911  1
  Pd  Pd3  1  0.74999995  0.75000006  0.75000014  1
