# generated using pymatgen
data_Ho3In
_symmetry_space_group_name_H-M   'P 1'
_cell_length_a   4.80631353
_cell_length_b   4.80601205
_cell_length_c   4.80223604
_cell_angle_alpha   89.98476934
_cell_angle_beta   90.00485488
_cell_angle_gamma   89.96608681
_symmetry_Int_Tables_number   1
_chemical_formula_structural   Ho3In
_chemical_formula_sum   'Ho3 In1'
_cell_volume   110.92779071
_cell_formula_units_Z   1
loop_
 _symmetry_equiv_pos_site_id
 _symmetry_equiv_pos_as_xyz
  1  'x, y, z'
loop_
 _atom_site_type_symbol
 _atom_site_label
 _atom_site_symmetry_multiplicity
 _atom_site_fract_x
 _atom_site_fract_y
 _atom_site_fract_z
 _atom_site_occupancy
  Ho  Ho0  1  0.00000100  0.49999700  0.49999900  1
  Ho  Ho1  1  0.50000200  0.00000200  0.50000000  1
  Ho  Ho2  1  0.49999800  0.50000000  0.00000100  1
  In  In3  1  0.00000100  0.00000000  0.00000000  1
