# generated using pymatgen
data_NbO2
_symmetry_space_group_name_H-M   'P 1'
_cell_length_a   6.04002472
_cell_length_b   10.24859248
_cell_length_c   10.24806614
_cell_angle_alpha   85.01908899
_cell_angle_beta   72.86043391
_cell_angle_gamma   72.86540149
_symmetry_Int_Tables_number   1
_chemical_formula_structural   NbO2
_chemical_formula_sum   'Nb16 O32'
_cell_volume   579.29452257
_cell_formula_units_Z   16
loop_
 _symmetry_equiv_pos_site_id
 _symmetry_equiv_pos_as_xyz
  1  'x, y, z'
loop_
 _atom_site_type_symbol
 _atom_site_label
 _atom_site_symmetry_multiplicity
 _atom_site_fract_x
 _atom_site_fract_y
 _atom_site_fract_z
 _atom_site_occupancy
  Nb  Nb0  1  0.13980276  0.51065354  0.26180430  1
  Nb  Nb1  1  0.40166064  0.23826688  0.51058531  1
  Nb  Nb2  1  0.15080827  0.26176287  0.98940010  1
  Nb  Nb3  1  0.91220544  0.98937665  0.23820892  1
  Nb  Nb4  1  0.86019871  0.48934659  0.73819553  1
  Nb  Nb5  1  0.59833944  0.76173221  0.48941645  1
  Nb  Nb6  1  0.84919308  0.73823835  0.01060007  1
  Nb  Nb7  1  0.08779735  0.01062175  0.76179076  1
  Nb  Nb8  1  0.60535617  0.49008261  0.24027823  1
  Nb  Nb9  1  0.84569613  0.25964934  0.49006958  1
  Nb  Nb10  1  0.59581919  0.24026234  0.00986843  1
  Nb  Nb11  1  0.33571615  0.00985333  0.25973839  1
  Nb  Nb12  1  0.39464549  0.50991622  0.75972144  1
  Nb  Nb13  1  0.15430327  0.74035013  0.50992958  1
  Nb  Nb14  1  0.40418021  0.75973604  0.99013200  1
  Nb  Nb15  1  0.66428167  0.99014772  0.74026179  1
  O  O16  1  0.77539628  0.35035681  0.10048382  1
  O  O17  1  0.87575490  0.39949683  0.35038069  1
  O  O18  1  0.62572458  0.10038169  0.14949055  1
  O  O19  1  0.22622433  0.14961039  0.39944905  1
  O  O20  1  0.22460396  0.64964446  0.89951858  1
  O  O21  1  0.12424642  0.60050092  0.64962042  1
  O  O22  1  0.37427380  0.89962057  0.85050874  1
  O  O23  1  0.77377607  0.85038912  0.60054843  1
  O  O24  1  0.25671156  0.36191806  0.11221795  1
  O  O25  1  0.36844303  0.38782650  0.36198869  1
  O  O26  1  0.11836375  0.11215720  0.13797089  1
  O  O27  1  0.73044184  0.13808265  0.38767927  1
  O  O28  1  0.74329069  0.63808199  0.88778149  1
  O  O29  1  0.63156033  0.61217634  0.63801230  1
  O  O30  1  0.88163485  0.88784137  0.86202851  1
  O  O31  1  0.26955336  0.86191758  0.61232130  1
  O  O32  1  0.97650623  0.15057536  0.90214791  1
  O  O33  1  0.87857640  0.59770056  0.15043417  1
  O  O34  1  0.62676737  0.90217620  0.34950312  1
  O  O35  1  0.02899070  0.34947981  0.59772009  1
  O  O36  1  0.02349367  0.84942365  0.09785145  1
  O  O37  1  0.12142553  0.40229977  0.84956472  1
  O  O38  1  0.37322818  0.09782226  0.65049799  1
  O  O39  1  0.97100644  0.65052139  0.40227974  1
  O  O40  1  0.47801350  0.13872665  0.88684350  1
  O  O41  1  0.36472164  0.61306782  0.13871195  1
  O  O42  1  0.11622440  0.88698016  0.36143221  1
  O  O43  1  0.50346223  0.36137787  0.61303846  1
  O  O44  1  0.52198842  0.86127429  0.11315735  1
  O  O45  1  0.63527880  0.38693189  0.86128850  1
  O  O46  1  0.88377551  0.11302060  0.63856675  1
  O  O47  1  0.49654027  0.63862170  0.38696055  1
