# generated using pymatgen
data_AlVRu2
_symmetry_space_group_name_H-M   'P 1'
_cell_length_a   4.22020012
_cell_length_b   4.22020010
_cell_length_c   4.22020019
_cell_angle_alpha   60.00004833
_cell_angle_beta   60.00004789
_cell_angle_gamma   60.00005033
_symmetry_Int_Tables_number   1
_chemical_formula_structural   AlVRu2
_chemical_formula_sum   'Al1 V1 Ru2'
_cell_volume   53.14771828
_cell_formula_units_Z   1
loop_
 _symmetry_equiv_pos_site_id
 _symmetry_equiv_pos_as_xyz
  1  'x, y, z'
loop_
 _atom_site_type_symbol
 _atom_site_label
 _atom_site_symmetry_multiplicity
 _atom_site_fract_x
 _atom_site_fract_y
 _atom_site_fract_z
 _atom_site_occupancy
  Al  Al0  1  0.24999923  0.24999922  0.24999922  1
  V  V1  1  0.75000006  0.74999997  0.74999998  1
  Ru  Ru2  1  0.00000011  0.00000016  0.00000015  1
  Ru  Ru3  1  0.50000060  0.50000065  0.50000065  1
