# generated using pymatgen
data_Co2(SnTe)3
_symmetry_space_group_name_H-M   'P 1'
_cell_length_a   9.13219958
_cell_length_b   9.13219958
_cell_length_c   9.13219941
_cell_angle_alpha   90.06679560
_cell_angle_beta   90.06679562
_cell_angle_gamma   90.06678631
_symmetry_Int_Tables_number   1
_chemical_formula_structural   Co2(SnTe)3
_chemical_formula_sum   'Co8 Sn12 Te12'
_cell_volume   761.59711137
_cell_formula_units_Z   4
loop_
 _symmetry_equiv_pos_site_id
 _symmetry_equiv_pos_as_xyz
  1  'x, y, z'
loop_
 _atom_site_type_symbol
 _atom_site_label
 _atom_site_symmetry_multiplicity
 _atom_site_fract_x
 _atom_site_fract_y
 _atom_site_fract_z
 _atom_site_occupancy
  Co  Co0  1  0.24831096  0.24448437  0.74464985  1
  Co  Co1  1  0.74464985  0.24831096  0.24448437  1
  Co  Co2  1  0.24448437  0.74464985  0.24831096  1
  Co  Co3  1  0.75168904  0.75551563  0.25535015  1
  Co  Co4  1  0.25535015  0.75168904  0.75551563  1
  Co  Co5  1  0.75551563  0.25535015  0.75168904  1
  Co  Co6  1  0.74816291  0.74816291  0.74816291  1
  Co  Co7  1  0.25183709  0.25183709  0.25183709  1
  Sn  Sn8  1  0.83481500  0.68049923  0.00314618  1
  Sn  Sn9  1  0.00314618  0.83481500  0.68049923  1
  Sn  Sn10  1  0.68049923  0.00314618  0.83481500  1
  Sn  Sn11  1  0.16518500  0.31950077  0.99685382  1
  Sn  Sn12  1  0.99685382  0.16518500  0.31950077  1
  Sn  Sn13  1  0.31950077  0.99685382  0.16518500  1
  Sn  Sn14  1  0.66576176  0.18014076  0.49923819  1
  Sn  Sn15  1  0.49923819  0.66576176  0.18014076  1
  Sn  Sn16  1  0.18014076  0.49923819  0.66576176  1
  Sn  Sn17  1  0.33423824  0.81985924  0.50076181  1
  Sn  Sn18  1  0.50076181  0.33423824  0.81985924  1
  Sn  Sn19  1  0.81985924  0.50076181  0.33423824  1
  Te  Te20  1  0.34510347  0.15956669  0.49580061  1
  Te  Te21  1  0.49580061  0.34510347  0.15956669  1
  Te  Te22  1  0.15956669  0.49580061  0.34510347  1
  Te  Te23  1  0.65489653  0.84043331  0.50419939  1
  Te  Te24  1  0.50419939  0.65489653  0.84043331  1
  Te  Te25  1  0.84043331  0.50419939  0.65489653  1
  Te  Te26  1  0.15510999  0.66057186  0.99934509  1
  Te  Te27  1  0.99934509  0.15510999  0.66057186  1
  Te  Te28  1  0.66057186  0.99934509  0.15510999  1
  Te  Te29  1  0.84489001  0.33942814  0.00065491  1
  Te  Te30  1  0.00065491  0.84489001  0.33942814  1
  Te  Te31  1  0.33942814  0.00065491  0.84489001  1
