# generated using pymatgen
data_NiS2
_symmetry_space_group_name_H-M   'P 1'
_cell_length_a   3.56422082
_cell_length_b   4.61226221
_cell_length_c   5.70340001
_cell_angle_alpha   90.00100241
_cell_angle_beta   90.00000000
_cell_angle_gamma   90.00000000
_symmetry_Int_Tables_number   1
_chemical_formula_structural   NiS2
_chemical_formula_sum   'Ni2 S4'
_cell_volume   93.75888285
_cell_formula_units_Z   2
loop_
 _symmetry_equiv_pos_site_id
 _symmetry_equiv_pos_as_xyz
  1  'x, y, z'
loop_
 _atom_site_type_symbol
 _atom_site_label
 _atom_site_symmetry_multiplicity
 _atom_site_fract_x
 _atom_site_fract_y
 _atom_site_fract_z
 _atom_site_occupancy
  Ni  Ni0  1  0.50000000  0.50000000  0.50000000  1
  Ni  Ni1  1  -0.00000000  -0.00000000  -0.00000000  1
  S  S2  1  0.50000000  0.32050009  0.89002037  1
  S  S3  1  0.00000000  0.17950532  0.39003078  1
  S  S4  1  -0.00000000  0.82049468  0.60996922  1
  S  S5  1  0.50000000  0.67949991  0.10997963  1
