# generated using pymatgen
data_Pm2CuSi
_symmetry_space_group_name_H-M   'P 1'
_cell_length_a   5.05892016
_cell_length_b   5.05866067
_cell_length_c   5.05511687
_cell_angle_alpha   60.02530080
_cell_angle_beta   60.02016556
_cell_angle_gamma   59.95249966
_symmetry_Int_Tables_number   1
_chemical_formula_structural   Pm2CuSi
_chemical_formula_sum   'Pm2 Cu1 Si1'
_cell_volume   91.47500961
_cell_formula_units_Z   1
loop_
 _symmetry_equiv_pos_site_id
 _symmetry_equiv_pos_as_xyz
  1  'x, y, z'
loop_
 _atom_site_type_symbol
 _atom_site_label
 _atom_site_symmetry_multiplicity
 _atom_site_fract_x
 _atom_site_fract_y
 _atom_site_fract_z
 _atom_site_occupancy
  Pm  Pm0  1  0.00000005  0.00000177  0.99999459  1
  Pm  Pm1  1  0.50000258  0.50000007  0.50000811  1
  Cu  Cu2  1  0.24999539  0.24999723  0.24999631  1
  Si  Si3  1  0.75000098  0.75000093  0.75000099  1
