# generated using pymatgen
data_Ga2CoRu
_symmetry_space_group_name_H-M   'P 1'
_cell_length_a   4.14390572
_cell_length_b   4.14344463
_cell_length_c   4.14380919
_cell_angle_alpha   60.02490374
_cell_angle_beta   60.02151139
_cell_angle_gamma   60.01956716
_symmetry_Int_Tables_number   1
_chemical_formula_structural   Ga2CoRu
_chemical_formula_sum   'Ga2 Co1 Ru1'
_cell_volume   50.33529714
_cell_formula_units_Z   1
loop_
 _symmetry_equiv_pos_site_id
 _symmetry_equiv_pos_as_xyz
  1  'x, y, z'
loop_
 _atom_site_type_symbol
 _atom_site_label
 _atom_site_symmetry_multiplicity
 _atom_site_fract_x
 _atom_site_fract_y
 _atom_site_fract_z
 _atom_site_occupancy
  Ga  Ga0  1  0.00001031  0.00001827  0.00002603  1
  Ga  Ga1  1  0.49999196  0.49998567  0.49997106  1
  Co  Co2  1  0.24997703  0.24999233  0.25000944  1
  Ru  Ru3  1  0.75002070  0.75000173  0.74999547  1
