# generated using pymatgen
data_BeRu2W
_symmetry_space_group_name_H-M   'P 1'
_cell_length_a   4.21052007
_cell_length_b   4.21052006
_cell_length_c   4.21051992
_cell_angle_alpha   59.99990511
_cell_angle_beta   59.99990561
_cell_angle_gamma   59.99990061
_symmetry_Int_Tables_number   1
_chemical_formula_structural   BeRu2W
_chemical_formula_sum   'Be1 Ru2 W1'
_cell_volume   52.78265901
_cell_formula_units_Z   1
loop_
 _symmetry_equiv_pos_site_id
 _symmetry_equiv_pos_as_xyz
  1  'x, y, z'
loop_
 _atom_site_type_symbol
 _atom_site_label
 _atom_site_symmetry_multiplicity
 _atom_site_fract_x
 _atom_site_fract_y
 _atom_site_fract_z
 _atom_site_occupancy
  Be  Be0  1  0.24999912  0.24999911  0.24999911  1
  Ru  Ru1  1  0.00000041  0.00000038  0.00000038  1
  Ru  Ru2  1  0.50000045  0.50000041  0.50000041  1
  W  W3  1  0.75000002  0.75000010  0.75000010  1
