# generated using pymatgen
data_BaZrF6
_symmetry_space_group_name_H-M   'P 1'
_cell_length_a   5.46635855
_cell_length_b   6.92062829
_cell_length_c   6.92062984
_cell_angle_alpha   113.12358384
_cell_angle_beta   90.00000000
_cell_angle_gamma   90.00000000
_symmetry_Int_Tables_number   1
_chemical_formula_structural   BaZrF6
_chemical_formula_sum   'Ba2 Zr2 F12'
_cell_volume   240.77784450
_cell_formula_units_Z   2
loop_
 _symmetry_equiv_pos_site_id
 _symmetry_equiv_pos_as_xyz
  1  'x, y, z'
loop_
 _atom_site_type_symbol
 _atom_site_label
 _atom_site_symmetry_multiplicity
 _atom_site_fract_x
 _atom_site_fract_y
 _atom_site_fract_z
 _atom_site_occupancy
  Ba  Ba0  1  0.43612236  0.75000000  0.25000000  1
  Ba  Ba1  1  0.56387764  0.25000000  0.75000000  1
  Zr  Zr2  1  -0.00000000  0.75000000  0.75000000  1
  Zr  Zr3  1  -0.00000000  0.25000000  0.25000000  1
  F  F4  1  0.75178813  0.43410589  0.18128376  1
  F  F5  1  0.75178813  0.06589411  0.31871624  1
  F  F6  1  0.24821187  0.18128376  0.43410589  1
  F  F7  1  0.24821187  0.31871624  0.06589411  1
  F  F8  1  0.84195970  0.43467522  0.56532478  1
  F  F9  1  0.84195970  0.06532478  0.93467522  1
  F  F10  1  0.15804030  0.56532478  0.43467522  1
  F  F11  1  0.15804030  0.93467522  0.06532478  1
  F  F12  1  0.75178813  0.68128376  0.93410589  1
  F  F13  1  0.75178813  0.81871624  0.56589411  1
  F  F14  1  0.24821187  0.93410589  0.68128376  1
  F  F15  1  0.24821187  0.56589411  0.81871624  1
