# generated using pymatgen
data_Tc3Pd
_symmetry_space_group_name_H-M   'P 1'
_cell_length_a   5.49954363
_cell_length_b   5.49954359
_cell_length_c   4.37056571
_cell_angle_alpha   90.00000000
_cell_angle_beta   90.00000000
_cell_angle_gamma   120.00000629
_symmetry_Int_Tables_number   1
_chemical_formula_structural   Tc3Pd
_chemical_formula_sum   'Tc6 Pd2'
_cell_volume   114.47787497
_cell_formula_units_Z   2
loop_
 _symmetry_equiv_pos_site_id
 _symmetry_equiv_pos_as_xyz
  1  'x, y, z'
loop_
 _atom_site_type_symbol
 _atom_site_label
 _atom_site_symmetry_multiplicity
 _atom_site_fract_x
 _atom_site_fract_y
 _atom_site_fract_z
 _atom_site_occupancy
  Tc  Tc0  1  0.84245283  0.15754917  0.75000100  1
  Tc  Tc1  1  0.31509534  0.15754917  0.75000100  1
  Tc  Tc2  1  0.84245083  0.68490466  0.75000100  1
  Tc  Tc3  1  0.15754817  0.84245083  0.24999900  1
  Tc  Tc4  1  0.68490366  0.84245083  0.24999900  1
  Tc  Tc5  1  0.15754817  0.31509534  0.24999900  1
  Pd  Pd6  1  0.66666700  0.33333300  0.24999900  1
  Pd  Pd7  1  0.33333300  0.66666700  0.75000100  1
