# generated using pymatgen
data_Tm5Sb3
_symmetry_space_group_name_H-M   'P 1'
_cell_length_a   8.82120290
_cell_length_b   8.82118243
_cell_length_c   6.20640502
_cell_angle_alpha   89.99905935
_cell_angle_beta   90.00040667
_cell_angle_gamma   120.00012847
_symmetry_Int_Tables_number   1
_chemical_formula_structural   Tm5Sb3
_chemical_formula_sum   'Tm10 Sb6'
_cell_volume   418.23926073
_cell_formula_units_Z   2
loop_
 _symmetry_equiv_pos_site_id
 _symmetry_equiv_pos_as_xyz
  1  'x, y, z'
loop_
 _atom_site_type_symbol
 _atom_site_label
 _atom_site_symmetry_multiplicity
 _atom_site_fract_x
 _atom_site_fract_y
 _atom_site_fract_z
 _atom_site_occupancy
  Tm  Tm0  1  0.33333612  0.66666630  -0.00000141  1
  Tm  Tm1  1  0.66667026  0.33333458  0.49999991  1
  Tm  Tm2  1  0.66666391  0.33333139  0.99999629  1
  Tm  Tm3  1  0.33332980  0.66666315  0.49999644  1
  Tm  Tm4  1  0.24688608  0.00000582  0.24999636  1
  Tm  Tm5  1  0.75312004  0.00000654  0.74999829  1
  Tm  Tm6  1  -0.00000404  0.24688086  0.24999751  1
  Tm  Tm7  1  0.75311882  0.75311431  0.24999662  1
  Tm  Tm8  1  0.24688621  0.24688068  0.74999806  1
  Tm  Tm9  1  -0.00000778  0.75311246  0.74999687  1
  Sb  Sb10  1  0.61177281  0.99999319  0.25001106  1
  Sb  Sb11  1  0.38821414  -0.00001395  0.74999297  1
  Sb  Sb12  1  0.00000919  0.61178580  0.24999238  1
  Sb  Sb13  1  0.38822224  0.38822341  0.25001093  1
  Sb  Sb14  1  0.61177454  0.61178290  0.74999309  1
  Sb  Sb15  1  0.00000467  0.38822255  0.75001164  1
