# generated using pymatgen
data_TbCuGe
_symmetry_space_group_name_H-M   'P 1'
_cell_length_a   4.21969531
_cell_length_b   4.21969494
_cell_length_c   7.38856615
_cell_angle_alpha   90.00000000
_cell_angle_beta   90.00000000
_cell_angle_gamma   119.99999498
_symmetry_Int_Tables_number   1
_chemical_formula_structural   TbCuGe
_chemical_formula_sum   'Tb2 Cu2 Ge2'
_cell_volume   113.93390111
_cell_formula_units_Z   2
loop_
 _symmetry_equiv_pos_site_id
 _symmetry_equiv_pos_as_xyz
  1  'x, y, z'
loop_
 _atom_site_type_symbol
 _atom_site_label
 _atom_site_symmetry_multiplicity
 _atom_site_fract_x
 _atom_site_fract_y
 _atom_site_fract_z
 _atom_site_occupancy
  Tb  Tb0  1  -0.00000000  -0.00000000  0.75217883  1
  Tb  Tb1  1  -0.00000000  -0.00000000  0.25217883  1
  Cu  Cu2  1  0.66666700  0.33333300  0.52599314  1
  Cu  Cu3  1  0.33333300  0.66666700  0.02599314  1
  Ge  Ge4  1  0.33333300  0.66666700  0.48232703  1
  Ge  Ge5  1  0.66666700  0.33333300  0.98232703  1
