# generated using pymatgen
data_Er2(SO4)3
_symmetry_space_group_name_H-M   'P 1'
_cell_length_a   9.14857973
_cell_length_b   9.20721132
_cell_length_c   12.69436646
_cell_angle_alpha   90.00000000
_cell_angle_beta   90.00000000
_cell_angle_gamma   90.00000000
_symmetry_Int_Tables_number   1
_chemical_formula_structural   Er2(SO4)3
_chemical_formula_sum   'Er8 S12 O48'
_cell_volume   1069.28338757
_cell_formula_units_Z   4
loop_
 _symmetry_equiv_pos_site_id
 _symmetry_equiv_pos_as_xyz
  1  'x, y, z'
loop_
 _atom_site_type_symbol
 _atom_site_label
 _atom_site_symmetry_multiplicity
 _atom_site_fract_x
 _atom_site_fract_y
 _atom_site_fract_z
 _atom_site_occupancy
  Er  Er0  1  0.75045048  0.46361008  0.38189039  1
  Er  Er1  1  0.75045048  0.03638992  0.61810961  1
  Er  Er2  1  0.74954952  0.96361008  0.11810961  1
  Er  Er3  1  0.74954952  0.53638992  0.88189039  1
  Er  Er4  1  0.24954952  0.53638992  0.61810961  1
  Er  Er5  1  0.24954952  0.96361008  0.38189039  1
  Er  Er6  1  0.25045048  0.03638992  0.88189039  1
  Er  Er7  1  0.25045048  0.46361008  0.11810961  1
  S  S8  1  0.60659056  0.38847773  0.64561388  1
  S  S9  1  0.60659056  0.11152227  0.35438612  1
  S  S10  1  0.89340944  0.88847773  0.85438612  1
  S  S11  1  0.89340944  0.61152227  0.14561388  1
  S  S12  1  0.39340944  0.61152227  0.35438612  1
  S  S13  1  0.39340944  0.88847773  0.64561388  1
  S  S14  1  0.10659056  0.11152227  0.14561388  1
  S  S15  1  0.10659056  0.38847773  0.85438612  1
  S  S16  1  0.03382298  0.25000000  0.50000000  1
  S  S17  1  0.46617702  0.75000000  -0.00000000  1
  S  S18  1  0.96617702  0.75000000  0.50000000  1
  S  S19  1  0.53382298  0.25000000  -0.00000000  1
  O  O20  1  0.12659917  0.34939051  0.56017489  1
  O  O21  1  0.12659917  0.15060949  0.43982511  1
  O  O22  1  0.37340083  0.84939051  0.93982511  1
  O  O23  1  0.37340083  0.65060949  0.06017489  1
  O  O24  1  0.87340083  0.65060949  0.43982511  1
  O  O25  1  0.87340083  0.84939051  0.56017489  1
  O  O26  1  0.62659917  0.15060949  0.06017489  1
  O  O27  1  0.62659917  0.34939051  0.93982511  1
  O  O28  1  0.94188193  0.33176412  0.42623965  1
  O  O29  1  0.94188193  0.16823588  0.57376035  1
  O  O30  1  0.55811807  0.83176412  0.07376035  1
  O  O31  1  0.55811807  0.66823588  0.92623965  1
  O  O32  1  0.05811807  0.66823588  0.57376035  1
  O  O33  1  0.05811807  0.83176412  0.42623965  1
  O  O34  1  0.44188193  0.16823588  0.92623965  1
  O  O35  1  0.44188193  0.33176412  0.07376035  1
  O  O36  1  0.33684793  0.57730580  0.45948691  1
  O  O37  1  0.66315207  0.42269420  0.54051309  1
  O  O38  1  0.83684793  0.92269420  0.95948691  1
  O  O39  1  0.83684793  0.57730580  0.04051309  1
  O  O40  1  0.35786100  0.76233387  0.32723605  1
  O  O41  1  0.35786100  0.73766613  0.67276395  1
  O  O42  1  0.14213900  0.26233387  0.17276395  1
  O  O43  1  0.14213900  0.23766613  0.82723605  1
  O  O44  1  0.64213900  0.23766613  0.67276395  1
  O  O45  1  0.64213900  0.26233387  0.32723605  1
  O  O46  1  0.85786100  0.73766613  0.82723605  1
  O  O47  1  0.85786100  0.76233387  0.17276395  1
  O  O48  1  0.94750232  0.40672338  0.85264989  1
  O  O49  1  0.94750232  0.09327662  0.14735011  1
  O  O50  1  0.55249768  0.90672338  0.64735011  1
  O  O51  1  0.55249768  0.59327662  0.35264989  1
  O  O52  1  0.05249768  0.59327662  0.14735011  1
  O  O53  1  0.05249768  0.90672338  0.85264989  1
  O  O54  1  0.44750232  0.09327662  0.35264989  1
  O  O55  1  0.44750232  0.40672338  0.64735011  1
  O  O56  1  0.17341659  0.48746095  0.77770796  1
  O  O57  1  0.17341659  0.01253905  0.22229204  1
  O  O58  1  0.32658341  0.98746095  0.72229204  1
  O  O59  1  0.32658341  0.51253905  0.27770796  1
  O  O60  1  0.82658341  0.51253905  0.22229204  1
  O  O61  1  0.82658341  0.98746095  0.77770796  1
  O  O62  1  0.67341659  0.01253905  0.27770796  1
  O  O63  1  0.67341659  0.48746095  0.72229204  1
  O  O64  1  0.16315207  0.42269420  0.95948691  1
  O  O65  1  0.16315207  0.07730580  0.04051309  1
  O  O66  1  0.33684793  0.92269420  0.54051309  1
  O  O67  1  0.66315207  0.07730580  0.45948691  1
