# generated using pymatgen
data_PdAuO2
_symmetry_space_group_name_H-M   'P 1'
_cell_length_a   3.22420622
_cell_length_b   3.22420691
_cell_length_c   6.30661699
_cell_angle_alpha   75.18961964
_cell_angle_beta   75.18961531
_cell_angle_gamma   59.99999606
_symmetry_Int_Tables_number   1
_chemical_formula_structural   PdAuO2
_chemical_formula_sum   'Pd1 Au1 O2'
_cell_volume   54.24740618
_cell_formula_units_Z   1
loop_
 _symmetry_equiv_pos_site_id
 _symmetry_equiv_pos_as_xyz
  1  'x, y, z'
loop_
 _atom_site_type_symbol
 _atom_site_label
 _atom_site_symmetry_multiplicity
 _atom_site_fract_x
 _atom_site_fract_y
 _atom_site_fract_z
 _atom_site_occupancy
  Pd  Pd0  1  0.50000000  0.50000000  0.50000000  1
  Au  Au1  1  0.00000000  -0.00000000  0.00000000  1
  O  O2  1  0.11216559  0.11216559  0.66350024  1
  O  O3  1  0.88783441  0.88783441  0.33649976  1
