# generated using pymatgen
data_H4CN2O
_symmetry_space_group_name_H-M   'P 1'
_cell_length_a   6.30277169
_cell_length_b   6.30277169
_cell_length_c   4.54411749
_cell_angle_alpha   90.00000000
_cell_angle_beta   90.00000000
_cell_angle_gamma   90.00000000
_symmetry_Int_Tables_number   1
_chemical_formula_structural   H4CN2O
_chemical_formula_sum   'H8 C2 N4 O2'
_cell_volume   180.51475373
_cell_formula_units_Z   2
loop_
 _symmetry_equiv_pos_site_id
 _symmetry_equiv_pos_as_xyz
  1  'x, y, z'
loop_
 _atom_site_type_symbol
 _atom_site_label
 _atom_site_symmetry_multiplicity
 _atom_site_fract_x
 _atom_site_fract_y
 _atom_site_fract_z
 _atom_site_occupancy
  H  H0  1  0.27380682  0.77380682  0.53129937  1
  H  H1  1  0.72619318  0.22619318  0.53129937  1
  H  H2  1  0.37437528  0.87437528  0.19734669  1
  H  H3  1  0.62562472  0.12562472  0.19734669  1
  H  H4  1  0.22619318  0.27380682  0.46870063  1
  H  H5  1  0.77380682  0.72619318  0.46870063  1
  H  H6  1  0.12562472  0.37437528  0.80265331  1
  H  H7  1  0.87437528  0.62562472  0.80265331  1
  C  C8  1  0.00000000  0.50000000  0.42129831  1
  C  C9  1  0.50000000  0.00000000  0.57870169  1
  N  N10  1  0.37144148  0.87144148  0.42082629  1
  N  N11  1  0.62855852  0.12855852  0.42082629  1
  N  N12  1  0.12855852  0.37144148  0.57917371  1
  N  N13  1  0.87144148  0.62855852  0.57917371  1
  O  O14  1  0.00000000  0.50000000  0.14549649  1
  O  O15  1  0.50000000  0.00000000  0.85450351  1
