# generated using pymatgen
data_CsAsF6
_symmetry_space_group_name_H-M   'P 1'
_cell_length_a   5.16707702
_cell_length_b   5.16707711
_cell_length_c   5.16707738
_cell_angle_alpha   96.53076799
_cell_angle_beta   96.53077919
_cell_angle_gamma   96.53077616
_symmetry_Int_Tables_number   1
_chemical_formula_structural   CsAsF6
_chemical_formula_sum   'Cs1 As1 F6'
_cell_volume   135.04361897
_cell_formula_units_Z   1
loop_
 _symmetry_equiv_pos_site_id
 _symmetry_equiv_pos_as_xyz
  1  'x, y, z'
loop_
 _atom_site_type_symbol
 _atom_site_label
 _atom_site_symmetry_multiplicity
 _atom_site_fract_x
 _atom_site_fract_y
 _atom_site_fract_z
 _atom_site_occupancy
  Cs  Cs0  1  0.50000000  0.50000000  0.50000000  1
  As  As1  1  0.00000000  -0.00000000  -0.00000000  1
  F  F2  1  0.18959736  0.27547830  0.92234457  1
  F  F3  1  0.27547830  0.92234457  0.18959736  1
  F  F4  1  0.07765543  0.81040264  0.72452170  1
  F  F5  1  0.72452170  0.07765543  0.81040264  1
  F  F6  1  0.81040264  0.72452170  0.07765543  1
  F  F7  1  0.92234457  0.18959736  0.27547830  1
