# generated using pymatgen
data_Nd(Al2Cu)4
_symmetry_space_group_name_H-M   'P 1'
_cell_length_a   5.12437374
_cell_length_b   6.72151886
_cell_length_c   6.72151361
_cell_angle_alpha   98.49869498
_cell_angle_beta   67.46059130
_cell_angle_gamma   112.53938134
_symmetry_Int_Tables_number   1
_chemical_formula_structural   Nd(Al2Cu)4
_chemical_formula_sum   'Nd1 Al8 Cu4'
_cell_volume   197.49593407
_cell_formula_units_Z   1
loop_
 _symmetry_equiv_pos_site_id
 _symmetry_equiv_pos_as_xyz
  1  'x, y, z'
loop_
 _atom_site_type_symbol
 _atom_site_label
 _atom_site_symmetry_multiplicity
 _atom_site_fract_x
 _atom_site_fract_y
 _atom_site_fract_z
 _atom_site_occupancy
  Nd  Nd0  1  0.00000008  -0.00000009  -0.00000006  1
  Al  Al1  1  0.50000048  0.22117198  0.22117215  1
  Al  Al2  1  0.27898504  0.77866449  0.22133526  1
  Al  Al3  1  0.00000062  0.34933231  0.34933105  1
  Al  Al4  1  0.65024476  0.65068291  0.34931613  1
  Al  Al5  1  0.34975567  0.34931737  0.65068423  1
  Al  Al6  1  0.99999987  0.65066833  0.65066959  1
  Al  Al7  1  0.50000041  0.77882803  0.77882801  1
  Al  Al8  1  0.72101460  0.22133511  0.77866438  1
  Cu  Cu9  1  0.00000003  0.50000014  0.00000001  1
  Cu  Cu10  1  0.49999983  0.49999940  0.00000037  1
  Cu  Cu11  1  0.00000004  0.00000015  0.49999960  1
  Cu  Cu12  1  0.49999957  -0.00000013  0.49999928  1
