# generated using pymatgen
data_Hf5Sc
_symmetry_space_group_name_H-M   'P 1'
_cell_length_a   5.56149251
_cell_length_b   5.56145328
_cell_length_c   5.02450013
_cell_angle_alpha   90.00000000
_cell_angle_beta   90.00000000
_cell_angle_gamma   120.00022094
_symmetry_Int_Tables_number   1
_chemical_formula_structural   Hf5Sc
_chemical_formula_sum   'Hf5 Sc1'
_cell_volume   134.58670990
_cell_formula_units_Z   1
loop_
 _symmetry_equiv_pos_site_id
 _symmetry_equiv_pos_as_xyz
  1  'x, y, z'
loop_
 _atom_site_type_symbol
 _atom_site_label
 _atom_site_symmetry_multiplicity
 _atom_site_fract_x
 _atom_site_fract_y
 _atom_site_fract_z
 _atom_site_occupancy
  Hf  Hf0  1  0.66051404  0.00000000  0.00000000  1
  Hf  Hf1  1  0.99998200  0.66052904  0.00000000  1
  Hf  Hf2  1  0.33945296  0.33947096  -0.00000000  1
  Hf  Hf3  1  0.33331600  0.66666600  0.50000000  1
  Hf  Hf4  1  0.66664900  0.33333600  0.50000000  1
  Sc  Sc5  1  0.99998100  -0.00000000  0.50000000  1
