# generated using pymatgen
data_Sm2ZnHg
_symmetry_space_group_name_H-M   'P 1'
_cell_length_a   5.24410357
_cell_length_b   5.24424309
_cell_length_c   5.24408492
_cell_angle_alpha   59.99932750
_cell_angle_beta   60.00209157
_cell_angle_gamma   59.99929084
_symmetry_Int_Tables_number   1
_chemical_formula_structural   Sm2ZnHg
_chemical_formula_sum   'Sm2 Zn1 Hg1'
_cell_volume   101.97908762
_cell_formula_units_Z   1
loop_
 _symmetry_equiv_pos_site_id
 _symmetry_equiv_pos_as_xyz
  1  'x, y, z'
loop_
 _atom_site_type_symbol
 _atom_site_label
 _atom_site_symmetry_multiplicity
 _atom_site_fract_x
 _atom_site_fract_y
 _atom_site_fract_z
 _atom_site_occupancy
  Sm  Sm0  1  0.99999794  0.00000160  0.00000189  1
  Sm  Sm1  1  0.50000202  0.49999689  0.49999892  1
  Zn  Zn2  1  0.75000095  0.75000177  0.74999912  1
  Hg  Hg3  1  0.24999909  0.25000074  0.25000007  1
