# generated using pymatgen
data_Ba2Cu(PO4)2
_symmetry_space_group_name_H-M   'P 1'
_cell_length_a   6.63598441
_cell_length_b   6.63598441
_cell_length_c   6.91595398
_cell_angle_alpha   75.55319192
_cell_angle_beta   75.55319192
_cell_angle_gamma   45.60266346
_symmetry_Int_Tables_number   1
_chemical_formula_structural   Ba2Cu(PO4)2
_chemical_formula_sum   'Ba2 Cu1 P2 O8'
_cell_volume   209.48442845
_cell_formula_units_Z   1
loop_
 _symmetry_equiv_pos_site_id
 _symmetry_equiv_pos_as_xyz
  1  'x, y, z'
loop_
 _atom_site_type_symbol
 _atom_site_label
 _atom_site_symmetry_multiplicity
 _atom_site_fract_x
 _atom_site_fract_y
 _atom_site_fract_z
 _atom_site_occupancy
  Ba  Ba0  1  0.17358797  0.17358797  0.78484701  1
  Ba  Ba1  1  0.82641203  0.82641203  0.21515299  1
  Cu  Cu2  1  0.50000000  0.50000000  0.50000000  1
  P  P3  1  0.13273214  0.13273214  0.29861100  1
  P  P4  1  0.86726786  0.86726786  0.70138900  1
  O  O5  1  0.12244290  0.63516303  0.56313542  1
  O  O6  1  0.36483697  0.87755710  0.43686458  1
  O  O7  1  0.87755710  0.36483697  0.43686458  1
  O  O8  1  0.63516303  0.12244290  0.56313542  1
  O  O9  1  0.25428450  0.25428450  0.15946237  1
  O  O10  1  0.95314137  0.95314137  0.82293680  1
  O  O11  1  0.04685863  0.04685863  0.17706320  1
  O  O12  1  0.74571550  0.74571550  0.84053763  1
