# generated using pymatgen
data_PrAl4Co
_symmetry_space_group_name_H-M   'P 1'
_cell_length_a   7.64692601
_cell_length_b   4.01724513
_cell_length_c   6.90651286
_cell_angle_alpha   90.00000000
_cell_angle_beta   90.00000000
_cell_angle_gamma   90.00000000
_symmetry_Int_Tables_number   1
_chemical_formula_structural   PrAl4Co
_chemical_formula_sum   'Pr2 Al8 Co2'
_cell_volume   212.16514858
_cell_formula_units_Z   2
loop_
 _symmetry_equiv_pos_site_id
 _symmetry_equiv_pos_as_xyz
  1  'x, y, z'
loop_
 _atom_site_type_symbol
 _atom_site_label
 _atom_site_symmetry_multiplicity
 _atom_site_fract_x
 _atom_site_fract_y
 _atom_site_fract_z
 _atom_site_occupancy
  Pr  Pr0  1  0.25000000  -0.00000000  0.38538609  1
  Pr  Pr1  1  0.75000000  0.00000000  0.61461191  1
  Al  Al2  1  -0.00000000  -0.00000000  0.00000000  1
  Al  Al3  1  0.50000000  -0.00000000  0.00000000  1
  Al  Al4  1  0.25000000  0.50000100  0.04092197  1
  Al  Al5  1  0.57128308  0.50000100  0.29480380  1
  Al  Al6  1  0.92871692  0.50000100  0.29480380  1
  Al  Al7  1  0.07128208  0.50000100  0.70519620  1
  Al  Al8  1  0.42871692  0.50000100  0.70519620  1
  Al  Al9  1  0.75000000  0.50000100  0.95907703  1
  Co  Co10  1  0.75000000  0.00000000  0.18249113  1
  Co  Co11  1  0.25000000  0.00000000  0.81750887  1
