# generated using pymatgen
data_YHoAg2
_symmetry_space_group_name_H-M   'P 1'
_cell_length_a   5.10042898
_cell_length_b   5.10042906
_cell_length_c   5.10042937
_cell_angle_alpha   59.99999376
_cell_angle_beta   59.99999308
_cell_angle_gamma   59.99999097
_symmetry_Int_Tables_number   1
_chemical_formula_structural   YHoAg2
_chemical_formula_sum   'Y1 Ho1 Ag2'
_cell_volume   93.82208577
_cell_formula_units_Z   1
loop_
 _symmetry_equiv_pos_site_id
 _symmetry_equiv_pos_as_xyz
  1  'x, y, z'
loop_
 _atom_site_type_symbol
 _atom_site_label
 _atom_site_symmetry_multiplicity
 _atom_site_fract_x
 _atom_site_fract_y
 _atom_site_fract_z
 _atom_site_occupancy
  Y  Y0  1  0.75000077  0.75000073  0.75000070  1
  Ho  Ho1  1  0.25000003  0.25000012  0.25000020  1
  Ag  Ag2  1  0.49999908  0.49999908  0.49999906  1
  Ag  Ag3  1  0.00000012  0.00000007  0.00000004  1
