# generated using pymatgen
data_EuLu2O4
_symmetry_space_group_name_H-M   'P 1'
_cell_length_a   3.29729512
_cell_length_b   9.81507137
_cell_length_c   11.60943232
_cell_angle_alpha   90.00000000
_cell_angle_beta   90.00000000
_cell_angle_gamma   90.00000000
_symmetry_Int_Tables_number   1
_chemical_formula_structural   EuLu2O4
_chemical_formula_sum   'Eu4 Lu8 O16'
_cell_volume   375.71822833
_cell_formula_units_Z   4
loop_
 _symmetry_equiv_pos_site_id
 _symmetry_equiv_pos_as_xyz
  1  'x, y, z'
loop_
 _atom_site_type_symbol
 _atom_site_label
 _atom_site_symmetry_multiplicity
 _atom_site_fract_x
 _atom_site_fract_y
 _atom_site_fract_z
 _atom_site_occupancy
  Eu  Eu0  1  0.75000000  0.75268380  0.65124639  1
  Eu  Eu1  1  0.25000000  0.74731620  0.15124639  1
  Eu  Eu2  1  0.75000000  0.25268380  0.84875361  1
  Eu  Eu3  1  0.25000000  0.24731620  0.34875361  1
  Lu  Lu4  1  0.75000000  0.42146578  0.10906728  1
  Lu  Lu5  1  0.25000000  0.07853422  0.60906728  1
  Lu  Lu6  1  0.75000000  0.92146578  0.39093272  1
  Lu  Lu7  1  0.25000000  0.57853422  0.89093272  1
  Lu  Lu8  1  0.75000000  0.42550669  0.61201537  1
  Lu  Lu9  1  0.25000000  0.07449331  0.11201537  1
  Lu  Lu10  1  0.75000000  0.92550669  0.88798463  1
  Lu  Lu11  1  0.25000000  0.57449331  0.38798463  1
  O  O12  1  0.75000000  0.42309259  0.42352639  1
  O  O13  1  0.25000000  0.07690741  0.92352639  1
  O  O14  1  0.75000000  0.92309259  0.07647361  1
  O  O15  1  0.25000000  0.57690741  0.57647361  1
  O  O16  1  0.75000000  0.51772309  0.78326443  1
  O  O17  1  0.25000000  0.98227691  0.28326443  1
  O  O18  1  0.75000000  0.01772309  0.71673557  1
  O  O19  1  0.25000000  0.48227691  0.21673557  1
  O  O20  1  0.75000000  0.12400291  0.47915526  1
  O  O21  1  0.25000000  0.37599709  0.97915526  1
  O  O22  1  0.75000000  0.62400291  0.02084474  1
  O  O23  1  0.25000000  0.87599709  0.52084474  1
  O  O24  1  0.75000000  0.20991539  0.17108591  1
  O  O25  1  0.25000000  0.29008461  0.67108591  1
  O  O26  1  0.75000000  0.70991539  0.32891409  1
  O  O27  1  0.25000000  0.79008461  0.82891409  1
