# generated using pymatgen
data_PrTe2
_symmetry_space_group_name_H-M   'P 1'
_cell_length_a   4.52800549
_cell_length_b   4.52800549
_cell_length_c   9.25568568
_cell_angle_alpha   90.00000000
_cell_angle_beta   90.00000000
_cell_angle_gamma   90.00000000
_symmetry_Int_Tables_number   1
_chemical_formula_structural   PrTe2
_chemical_formula_sum   'Pr2 Te4'
_cell_volume   189.76778444
_cell_formula_units_Z   2
loop_
 _symmetry_equiv_pos_site_id
 _symmetry_equiv_pos_as_xyz
  1  'x, y, z'
loop_
 _atom_site_type_symbol
 _atom_site_label
 _atom_site_symmetry_multiplicity
 _atom_site_fract_x
 _atom_site_fract_y
 _atom_site_fract_z
 _atom_site_occupancy
  Pr  Pr0  1  0.25000000  0.25000000  0.27175240  1
  Pr  Pr1  1  0.75000100  0.75000100  0.72824660  1
  Te  Te2  1  0.75000100  0.25000000  0.00000000  1
  Te  Te3  1  0.25000000  0.75000100  0.00000000  1
  Te  Te4  1  0.25000000  0.25000000  0.63001364  1
  Te  Te5  1  0.75000100  0.75000100  0.36998636  1
