# generated using pymatgen
data_PdAuO2
_symmetry_space_group_name_H-M   'P 1'
_cell_length_a   3.22212261
_cell_length_b   3.22212261
_cell_length_c   12.05909340
_cell_angle_alpha   90.00000000
_cell_angle_beta   90.00000000
_cell_angle_gamma   120.00002399
_symmetry_Int_Tables_number   1
_chemical_formula_structural   PdAuO2
_chemical_formula_sum   'Pd2 Au2 O4'
_cell_volume   108.42496982
_cell_formula_units_Z   2
loop_
 _symmetry_equiv_pos_site_id
 _symmetry_equiv_pos_as_xyz
  1  'x, y, z'
loop_
 _atom_site_type_symbol
 _atom_site_label
 _atom_site_symmetry_multiplicity
 _atom_site_fract_x
 _atom_site_fract_y
 _atom_site_fract_z
 _atom_site_occupancy
  Pd  Pd0  1  -0.00000000  0.00000000  0.00000000  1
  Pd  Pd1  1  -0.00000000  0.00000000  0.50000000  1
  Au  Au2  1  0.33333300  0.66666700  0.24993212  1
  Au  Au3  1  0.66666700  0.33333300  0.75006788  1
  O  O4  1  0.33333300  0.66666700  0.08188310  1
  O  O5  1  0.66666700  0.33333300  0.91811690  1
  O  O6  1  0.33333300  0.66666700  0.41801373  1
  O  O7  1  0.66666700  0.33333300  0.58198627  1
