# generated using pymatgen
data_ErCrB4
_symmetry_space_group_name_H-M   'P 1'
_cell_length_a   5.90757562
_cell_length_b   11.41954081
_cell_length_c   3.42718033
_cell_angle_alpha   89.99995982
_cell_angle_beta   89.99998734
_cell_angle_gamma   90.00004206
_symmetry_Int_Tables_number   1
_chemical_formula_structural   ErCrB4
_chemical_formula_sum   'Er4 Cr4 B16'
_cell_volume   231.20375700
_cell_formula_units_Z   4
loop_
 _symmetry_equiv_pos_site_id
 _symmetry_equiv_pos_as_xyz
  1  'x, y, z'
loop_
 _atom_site_type_symbol
 _atom_site_label
 _atom_site_symmetry_multiplicity
 _atom_site_fract_x
 _atom_site_fract_y
 _atom_site_fract_z
 _atom_site_occupancy
  Er  Er0  1  0.12432429  0.15108783  0.00000150  1
  Er  Er1  1  0.87568616  0.84891587  -0.00000004  1
  Er  Er2  1  0.62431517  0.34890759  0.99999934  1
  Er  Er3  1  0.37567562  0.65109123  0.99999812  1
  Cr  Cr4  1  0.12677911  0.41709190  -0.00000092  1
  Cr  Cr5  1  0.87321597  0.58291161  -0.00000134  1
  Cr  Cr6  1  0.62678706  0.08289881  0.00000100  1
  Cr  Cr7  1  0.37321964  0.91709518  0.00000043  1
  B  B8  1  0.47484121  0.19177110  0.50000066  1
  B  B9  1  0.52516105  0.80823532  0.49999948  1
  B  B10  1  0.97483938  0.30822312  0.50000071  1
  B  B11  1  0.02515576  0.69177175  0.49999855  1
  B  B12  1  0.28303642  0.31508860  0.50000084  1
  B  B13  1  0.71695589  0.68490669  0.49999705  1
  B  B14  1  0.78304687  0.18490676  0.50000094  1
  B  B15  1  0.21696144  0.81510132  0.50000068  1
  B  B16  1  0.36338373  0.46793656  0.49999900  1
  B  B17  1  0.63660188  0.53205550  0.49999733  1
  B  B18  1  0.86339876  0.03206191  0.50000065  1
  B  B19  1  0.13661644  0.96794599  0.50000110  1
  B  B20  1  0.38639035  0.04695410  0.50000185  1
  B  B21  1  0.61362111  0.95304797  0.50000118  1
  B  B22  1  0.88637888  0.45304282  0.49999802  1
  B  B23  1  0.11360983  0.54695246  0.49999786  1
