# generated using pymatgen
data_RbZn4P3
_symmetry_space_group_name_H-M   'P 1'
_cell_length_a   4.03390773
_cell_length_b   4.03390773
_cell_length_c   10.09839462
_cell_angle_alpha   90.00000000
_cell_angle_beta   90.00000000
_cell_angle_gamma   90.00000000
_symmetry_Int_Tables_number   1
_chemical_formula_structural   RbZn4P3
_chemical_formula_sum   'Rb1 Zn4 P3'
_cell_volume   164.32523349
_cell_formula_units_Z   1
loop_
 _symmetry_equiv_pos_site_id
 _symmetry_equiv_pos_as_xyz
  1  'x, y, z'
loop_
 _atom_site_type_symbol
 _atom_site_label
 _atom_site_symmetry_multiplicity
 _atom_site_fract_x
 _atom_site_fract_y
 _atom_site_fract_z
 _atom_site_occupancy
  Rb  Rb0  1  0.00000000  -0.00000000  0.50000100  1
  Zn  Zn1  1  0.00000000  0.50000100  0.15649044  1
  Zn  Zn2  1  -0.00000000  0.50000100  0.84350856  1
  Zn  Zn3  1  0.50000100  -0.00000000  0.84350856  1
  Zn  Zn4  1  0.50000100  -0.00000000  0.15649044  1
  P  P5  1  0.00000000  -0.00000000  -0.00000000  1
  P  P6  1  0.50000100  0.50000100  0.28371354  1
  P  P7  1  0.50000100  0.50000100  0.71628646  1
