# generated using pymatgen
data_Na(SnAs)2
_symmetry_space_group_name_H-M   'P 1'
_cell_length_a   9.53855770
_cell_length_b   9.53855733
_cell_length_c   9.53855830
_cell_angle_alpha   24.37008599
_cell_angle_beta   24.37008760
_cell_angle_gamma   24.37009139
_symmetry_Int_Tables_number   1
_chemical_formula_structural   Na(SnAs)2
_chemical_formula_sum   'Na1 Sn2 As2'
_cell_volume   129.89508992
_cell_formula_units_Z   1
loop_
 _symmetry_equiv_pos_site_id
 _symmetry_equiv_pos_as_xyz
  1  'x, y, z'
loop_
 _atom_site_type_symbol
 _atom_site_label
 _atom_site_symmetry_multiplicity
 _atom_site_fract_x
 _atom_site_fract_y
 _atom_site_fract_z
 _atom_site_occupancy
  Na  Na0  1  -0.00000000  0.00000000  -0.00000000  1
  Sn  Sn1  1  0.21123572  0.21123572  0.21123572  1
  Sn  Sn2  1  0.78876428  0.78876428  0.78876428  1
  As  As3  1  0.40667046  0.40667046  0.40667046  1
  As  As4  1  0.59332954  0.59332954  0.59332954  1
