# generated using pymatgen
data_NaH6CN2ClO2
_symmetry_space_group_name_H-M   'P 1'
_cell_length_a   9.57168296
_cell_length_b   9.57168296
_cell_length_c   6.43147243
_cell_angle_alpha   70.65176479
_cell_angle_beta   70.65176479
_cell_angle_gamma   30.84660423
_symmetry_Int_Tables_number   1
_chemical_formula_structural   NaH6CN2ClO2
_chemical_formula_sum   'Na2 H12 C2 N4 Cl2 O4'
_cell_volume   283.72011956
_cell_formula_units_Z   2
loop_
 _symmetry_equiv_pos_site_id
 _symmetry_equiv_pos_as_xyz
  1  'x, y, z'
loop_
 _atom_site_type_symbol
 _atom_site_label
 _atom_site_symmetry_multiplicity
 _atom_site_fract_x
 _atom_site_fract_y
 _atom_site_fract_z
 _atom_site_occupancy
  Na  Na0  1  0.31010344  0.68787345  0.73785945  1
  Na  Na1  1  0.31212655  0.68989656  0.26214055  1
  H  H2  1  0.79293979  0.12066722  0.54219856  1
  H  H3  1  0.69868062  0.21322452  0.04835211  1
  H  H4  1  0.63952834  0.02883961  0.89781838  1
  H  H5  1  0.08271773  0.55702880  0.45215713  1
  H  H6  1  0.64040187  0.88810803  0.34147133  1
  H  H7  1  0.96655656  0.54465048  0.11243388  1
  H  H8  1  0.45534952  0.03344344  0.88756612  1
  H  H9  1  0.11189197  0.35959813  0.65852867  1
  H  H10  1  0.44297120  0.91728227  0.54784287  1
  H  H11  1  0.97116039  0.36047166  0.10218162  1
  H  H12  1  0.78677548  0.30131938  0.95164789  1
  H  H13  1  0.87933278  0.20706021  0.45780144  1
  C  C14  1  0.36249538  0.31418387  0.66729355  1
  C  C15  1  0.68581613  0.63750462  0.33270645  1
  N  N16  1  0.48917354  0.11556133  0.83621142  1
  N  N17  1  0.16272696  0.42525575  0.59143449  1
  N  N18  1  0.57474425  0.83727304  0.40856551  1
  N  N19  1  0.88443867  0.51082646  0.16378858  1
  Cl  Cl20  1  0.96967053  0.79654472  0.10884998  1
  Cl  Cl21  1  0.20345528  0.03032947  0.89115002  1
  O  O22  1  0.62257534  0.37742466  0.00000000  1
  O  O23  1  0.96075534  0.03924466  0.50000000  1
  O  O24  1  0.42660499  0.39588963  0.58399036  1
  O  O25  1  0.60411037  0.57339501  0.41600964  1
