# generated using pymatgen
data_DyCuTe2
_symmetry_space_group_name_H-M   'P 1'
_cell_length_a   4.33090444
_cell_length_b   6.89946575
_cell_length_c   7.47663108
_cell_angle_alpha   90.94685518
_cell_angle_beta   89.99998771
_cell_angle_gamma   90.00000033
_symmetry_Int_Tables_number   1
_chemical_formula_structural   DyCuTe2
_chemical_formula_sum   'Dy2 Cu2 Te4'
_cell_volume   223.37816038
_cell_formula_units_Z   2
loop_
 _symmetry_equiv_pos_site_id
 _symmetry_equiv_pos_as_xyz
  1  'x, y, z'
loop_
 _atom_site_type_symbol
 _atom_site_label
 _atom_site_symmetry_multiplicity
 _atom_site_fract_x
 _atom_site_fract_y
 _atom_site_fract_z
 _atom_site_occupancy
  Dy  Dy0  1  0.00000000  0.00000000  -0.00000000  1
  Dy  Dy1  1  0.50000000  0.00000000  0.50000000  1
  Cu  Cu2  1  0.50000000  0.64599140  0.16008795  1
  Cu  Cu3  1  0.50000000  0.35400860  0.83991205  1
  Te  Te4  1  0.50000000  0.26048319  0.17459128  1
  Te  Te5  1  -0.00000000  0.26225465  0.66617233  1
  Te  Te6  1  0.00000000  0.73774535  0.33382767  1
  Te  Te7  1  0.50000000  0.73951681  0.82540872  1
