# generated using pymatgen
data_SrAgO2
_symmetry_space_group_name_H-M   'P 1'
_cell_length_a   3.52164349
_cell_length_b   4.41471460
_cell_length_c   7.80739204
_cell_angle_alpha   90.00000000
_cell_angle_beta   90.00000000
_cell_angle_gamma   90.00000000
_symmetry_Int_Tables_number   1
_chemical_formula_structural   SrAgO2
_chemical_formula_sum   'Sr2 Ag2 O4'
_cell_volume   121.38192169
_cell_formula_units_Z   2
loop_
 _symmetry_equiv_pos_site_id
 _symmetry_equiv_pos_as_xyz
  1  'x, y, z'
loop_
 _atom_site_type_symbol
 _atom_site_label
 _atom_site_symmetry_multiplicity
 _atom_site_fract_x
 _atom_site_fract_y
 _atom_site_fract_z
 _atom_site_occupancy
  Sr  Sr0  1  0.47823496  0.50000000  0.75000000  1
  Sr  Sr1  1  0.52176504  0.50000000  0.25000000  1
  Ag  Ag2  1  0.00000000  -0.00000000  0.50000000  1
  Ag  Ag3  1  0.00000000  -0.00000000  0.00000000  1
  O  O4  1  0.20419431  -0.00000000  0.25000000  1
  O  O5  1  0.79580569  -0.00000000  0.75000000  1
  O  O6  1  0.00000000  0.50000000  0.50000000  1
  O  O7  1  0.00000000  0.50000000  0.00000000  1
