# generated using pymatgen
data_In4SbTe3
_symmetry_space_group_name_H-M   'P 1'
_cell_length_a   7.61196393
_cell_length_b   7.61196393
_cell_length_c   7.61196393
_cell_angle_alpha   131.29455417
_cell_angle_beta   131.29455417
_cell_angle_gamma   71.34551018
_symmetry_Int_Tables_number   1
_chemical_formula_structural   In4SbTe3
_chemical_formula_sum   'In4 Sb1 Te3'
_cell_volume   243.68969985
_cell_formula_units_Z   1
loop_
 _symmetry_equiv_pos_site_id
 _symmetry_equiv_pos_as_xyz
  1  'x, y, z'
loop_
 _atom_site_type_symbol
 _atom_site_label
 _atom_site_symmetry_multiplicity
 _atom_site_fract_x
 _atom_site_fract_y
 _atom_site_fract_z
 _atom_site_occupancy
  In  In0  1  0.50000000  0.00000000  0.50000000  1
  In  In1  1  0.00000000  0.50000000  0.50000000  1
  In  In2  1  0.74768200  0.74768200  0.00000000  1
  In  In3  1  0.25231800  0.25231800  0.00000000  1
  Sb  Sb4  1  0.50000000  0.50000000  0.00000000  1
  Te  Te5  1  0.25000000  0.75000000  0.50000000  1
  Te  Te6  1  0.75000000  0.25000000  0.50000000  1
  Te  Te7  1  0.00000000  0.00000000  0.00000000  1
