# generated using pymatgen
data_RbBr3
_symmetry_space_group_name_H-M   'P 1'
_cell_length_a   7.18590803
_cell_length_b   7.18590803
_cell_length_c   7.18590803
_cell_angle_alpha   143.36227056
_cell_angle_beta   143.36227056
_cell_angle_gamma   52.78199652
_symmetry_Int_Tables_number   1
_chemical_formula_structural   RbBr3
_chemical_formula_sum   'Rb1 Br3'
_cell_volume   131.34386170
_cell_formula_units_Z   1
loop_
 _symmetry_equiv_pos_site_id
 _symmetry_equiv_pos_as_xyz
  1  'x, y, z'
loop_
 _atom_site_type_symbol
 _atom_site_label
 _atom_site_symmetry_multiplicity
 _atom_site_fract_x
 _atom_site_fract_y
 _atom_site_fract_z
 _atom_site_occupancy
  Rb  Rb0  1  -0.00000000  0.00000000  0.00000000  1
  Br  Br1  1  0.75000000  0.25000000  0.50000000  1
  Br  Br2  1  0.25000000  0.75000000  0.50000000  1
  Br  Br3  1  0.50000000  0.50000000  0.00000000  1
