# generated using pymatgen
data_SmNiC2
_symmetry_space_group_name_H-M   'P 1'
_cell_length_a   3.77009511
_cell_length_b   3.77009511
_cell_length_c   3.75467334
_cell_angle_alpha   90.00000000
_cell_angle_beta   90.00000000
_cell_angle_gamma   106.71229392
_symmetry_Int_Tables_number   1
_chemical_formula_structural   SmNiC2
_chemical_formula_sum   'Sm1 Ni1 C2'
_cell_volume   51.11328998
_cell_formula_units_Z   1
loop_
 _symmetry_equiv_pos_site_id
 _symmetry_equiv_pos_as_xyz
  1  'x, y, z'
loop_
 _atom_site_type_symbol
 _atom_site_label
 _atom_site_symmetry_multiplicity
 _atom_site_fract_x
 _atom_site_fract_y
 _atom_site_fract_z
 _atom_site_occupancy
  Sm  Sm0  1  0.00040107  0.99959893  -0.00000000  1
  Ni  Ni1  1  0.61135756  0.38864244  0.50000000  1
  C  C2  1  0.45310424  0.84986286  0.50000000  1
  C  C3  1  0.15013714  0.54689576  0.50000000  1
