# generated using pymatgen
data_SmCd3
_symmetry_space_group_name_H-M   'P 1'
_cell_length_a   6.69739413
_cell_length_b   6.69739463
_cell_length_c   4.95080160
_cell_angle_alpha   90.00000000
_cell_angle_beta   90.00000000
_cell_angle_gamma   120.00000273
_symmetry_Int_Tables_number   1
_chemical_formula_structural   SmCd3
_chemical_formula_sum   'Sm2 Cd6'
_cell_volume   192.31709437
_cell_formula_units_Z   2
loop_
 _symmetry_equiv_pos_site_id
 _symmetry_equiv_pos_as_xyz
  1  'x, y, z'
loop_
 _atom_site_type_symbol
 _atom_site_label
 _atom_site_symmetry_multiplicity
 _atom_site_fract_x
 _atom_site_fract_y
 _atom_site_fract_z
 _atom_site_occupancy
  Sm  Sm0  1  0.33333400  0.66666700  0.75000100  1
  Sm  Sm1  1  0.66666600  0.33333300  0.25000000  1
  Cd  Cd2  1  0.15890712  0.31781325  0.25000000  1
  Cd  Cd3  1  0.68218475  0.84109288  0.25000000  1
  Cd  Cd4  1  0.15890812  0.84109288  0.25000000  1
  Cd  Cd5  1  0.84109288  0.68218675  0.75000100  1
  Cd  Cd6  1  0.31781525  0.15890712  0.75000100  1
  Cd  Cd7  1  0.84109388  0.15890712  0.75000100  1
