# generated using pymatgen
data_GdAgGe
_symmetry_space_group_name_H-M   'P 1'
_cell_length_a   7.18282105
_cell_length_b   7.18282364
_cell_length_c   4.24482386
_cell_angle_alpha   90.00000000
_cell_angle_beta   90.00000000
_cell_angle_gamma   120.00001086
_symmetry_Int_Tables_number   1
_chemical_formula_structural   GdAgGe
_chemical_formula_sum   'Gd3 Ag3 Ge3'
_cell_volume   189.66207945
_cell_formula_units_Z   3
loop_
 _symmetry_equiv_pos_site_id
 _symmetry_equiv_pos_as_xyz
  1  'x, y, z'
loop_
 _atom_site_type_symbol
 _atom_site_label
 _atom_site_symmetry_multiplicity
 _atom_site_fract_x
 _atom_site_fract_y
 _atom_site_fract_z
 _atom_site_occupancy
  Gd  Gd0  1  -0.00000000  0.41629797  0.00000000  1
  Gd  Gd1  1  0.58370103  0.58370103  -0.00000000  1
  Gd  Gd2  1  0.41629897  0.00000000  -0.00000000  1
  Ag  Ag3  1  0.75097566  -0.00000000  0.50000000  1
  Ag  Ag4  1  0.24902434  0.24902434  0.50000000  1
  Ag  Ag5  1  0.00000000  0.75097666  0.50000000  1
  Ge  Ge6  1  0.00000000  0.99999900  -0.00000000  1
  Ge  Ge7  1  0.33333400  0.66666800  0.50000000  1
  Ge  Ge8  1  0.66666600  0.33333300  0.50000000  1
