# generated using pymatgen
data_Sm2ZnAg
_symmetry_space_group_name_H-M   'P 1'
_cell_length_a   5.17838222
_cell_length_b   5.17838368
_cell_length_c   5.17838441
_cell_angle_alpha   59.99997660
_cell_angle_beta   60.00004223
_cell_angle_gamma   60.00001875
_symmetry_Int_Tables_number   1
_chemical_formula_structural   Sm2ZnAg
_chemical_formula_sum   'Sm2 Zn1 Ag1'
_cell_volume   98.19010854
_cell_formula_units_Z   1
loop_
 _symmetry_equiv_pos_site_id
 _symmetry_equiv_pos_as_xyz
  1  'x, y, z'
loop_
 _atom_site_type_symbol
 _atom_site_label
 _atom_site_symmetry_multiplicity
 _atom_site_fract_x
 _atom_site_fract_y
 _atom_site_fract_z
 _atom_site_occupancy
  Sm  Sm0  1  0.00000000  -0.00000000  -0.00000000  1
  Sm  Sm1  1  0.50000000  0.50000000  0.50000000  1
  Zn  Zn2  1  0.75000000  0.75000000  0.75000000  1
  Ag  Ag3  1  0.25000000  0.25000000  0.25000000  1
