# generated using pymatgen
data_Na2NbF6
_symmetry_space_group_name_H-M   'P 1'
_cell_length_a   4.98869204
_cell_length_b   4.98869204
_cell_length_c   10.25945705
_cell_angle_alpha   90.00000000
_cell_angle_beta   90.00000000
_cell_angle_gamma   90.00784595
_symmetry_Int_Tables_number   1
_chemical_formula_structural   Na2NbF6
_chemical_formula_sum   'Na4 Nb2 F12'
_cell_volume   255.32760061
_cell_formula_units_Z   2
loop_
 _symmetry_equiv_pos_site_id
 _symmetry_equiv_pos_as_xyz
  1  'x, y, z'
loop_
 _atom_site_type_symbol
 _atom_site_label
 _atom_site_symmetry_multiplicity
 _atom_site_fract_x
 _atom_site_fract_y
 _atom_site_fract_z
 _atom_site_occupancy
  Na  Na0  1  -0.00000000  0.00000000  0.33250045  1
  Na  Na1  1  0.50000000  0.50000000  0.83274539  1
  Na  Na2  1  -0.00000000  0.00000000  0.66749955  1
  Na  Na3  1  0.50000000  0.50000000  0.16725461  1
  Nb  Nb4  1  -0.00000000  0.00000000  0.00000000  1
  Nb  Nb5  1  0.50000000  0.50000000  0.50000000  1
  F  F6  1  0.68756136  0.68756136  0.65017222  1
  F  F7  1  0.31243864  0.31243864  0.65017222  1
  F  F8  1  0.68756136  0.68756136  0.34982778  1
  F  F9  1  0.18770144  0.81229856  0.15003443  1
  F  F10  1  0.81229856  0.18770144  0.15003443  1
  F  F11  1  0.81229856  0.18770144  0.84996557  1
  F  F12  1  0.27874162  0.27874162  0.00000000  1
  F  F13  1  0.22136582  0.77863418  0.50000000  1
  F  F14  1  0.77863418  0.22136582  0.50000000  1
  F  F15  1  0.72125838  0.72125838  0.00000000  1
  F  F16  1  0.31243864  0.31243864  0.34982778  1
  F  F17  1  0.18770144  0.81229856  0.84996557  1
