# generated using pymatgen
data_TePd3
_symmetry_space_group_name_H-M   'P 1'
_cell_length_a   4.60595340
_cell_length_b   4.60595340
_cell_length_c   4.60595340
_cell_angle_alpha   121.50733066
_cell_angle_beta   121.50733066
_cell_angle_gamma   87.40847051
_symmetry_Int_Tables_number   1
_chemical_formula_structural   TePd3
_chemical_formula_sum   'Te1 Pd3'
_cell_volume   67.44534037
_cell_formula_units_Z   1
loop_
 _symmetry_equiv_pos_site_id
 _symmetry_equiv_pos_as_xyz
  1  'x, y, z'
loop_
 _atom_site_type_symbol
 _atom_site_label
 _atom_site_symmetry_multiplicity
 _atom_site_fract_x
 _atom_site_fract_y
 _atom_site_fract_z
 _atom_site_occupancy
  Te  Te0  1  -0.00000000  -0.00000000  -0.00000000  1
  Pd  Pd1  1  0.75000100  0.25000000  0.50000100  1
  Pd  Pd2  1  0.25000000  0.75000100  0.50000100  1
  Pd  Pd3  1  0.50000000  0.50000000  -0.00000000  1
