# generated using pymatgen
data_Ag2GeO3
_symmetry_space_group_name_H-M   'P 1'
_cell_length_a   4.67039895
_cell_length_b   6.97833905
_cell_length_c   10.53823366
_cell_angle_alpha   90.00000000
_cell_angle_beta   90.00000000
_cell_angle_gamma   90.00000000
_symmetry_Int_Tables_number   1
_chemical_formula_structural   Ag2GeO3
_chemical_formula_sum   'Ag8 Ge4 O12'
_cell_volume   343.45818460
_cell_formula_units_Z   4
loop_
 _symmetry_equiv_pos_site_id
 _symmetry_equiv_pos_as_xyz
  1  'x, y, z'
loop_
 _atom_site_type_symbol
 _atom_site_label
 _atom_site_symmetry_multiplicity
 _atom_site_fract_x
 _atom_site_fract_y
 _atom_site_fract_z
 _atom_site_occupancy
  Ag  Ag0  1  0.59022248  0.62751887  0.62547671  1
  Ag  Ag1  1  0.90977752  0.37248113  0.12547671  1
  Ag  Ag2  1  0.09022248  0.87248113  0.37452329  1
  Ag  Ag3  1  0.40977752  0.12751887  0.87452329  1
  Ag  Ag4  1  0.98063193  0.39344708  0.77423421  1
  Ag  Ag5  1  0.51936807  0.60655292  0.27423421  1
  Ag  Ag6  1  0.48063193  0.10655292  0.22576579  1
  Ag  Ag7  1  0.01936807  0.89344708  0.72576579  1
  Ge  Ge8  1  0.52326373  0.13047315  0.56388366  1
  Ge  Ge9  1  0.97673627  0.86952685  0.06388366  1
  Ge  Ge10  1  0.02326373  0.36952685  0.43611634  1
  Ge  Ge11  1  0.47673627  0.63047315  0.93611634  1
  O  O12  1  0.69844384  0.14069751  0.71093319  1
  O  O13  1  0.80155616  0.85930249  0.21093319  1
  O  O14  1  0.19844384  0.35930249  0.28906681  1
  O  O15  1  0.30155616  0.64069751  0.78906681  1
  O  O16  1  0.27708591  0.32765937  0.56006906  1
  O  O17  1  0.22291409  0.67234063  0.06006906  1
  O  O18  1  0.77708591  0.17234063  0.43993094  1
  O  O19  1  0.72291409  0.82765937  0.93993094  1
  O  O20  1  0.64741331  0.41359830  0.96086470  1
  O  O21  1  0.85258669  0.58640170  0.46086470  1
  O  O22  1  0.14741331  0.08640170  0.03913530  1
  O  O23  1  0.35258669  0.91359830  0.53913530  1
