# generated using pymatgen
data_Ta2ReRu
_symmetry_space_group_name_H-M   'P 1'
_cell_length_a   4.49002325
_cell_length_b   4.48997904
_cell_length_c   4.49002769
_cell_angle_alpha   60.01364167
_cell_angle_beta   60.01362669
_cell_angle_gamma   60.01376212
_symmetry_Int_Tables_number   1
_chemical_formula_structural   Ta2ReRu
_chemical_formula_sum   'Ta2 Re1 Ru1'
_cell_volume   64.02676529
_cell_formula_units_Z   1
loop_
 _symmetry_equiv_pos_site_id
 _symmetry_equiv_pos_as_xyz
  1  'x, y, z'
loop_
 _atom_site_type_symbol
 _atom_site_label
 _atom_site_symmetry_multiplicity
 _atom_site_fract_x
 _atom_site_fract_y
 _atom_site_fract_z
 _atom_site_occupancy
  Ta  Ta0  1  0.00001437  0.00001610  0.00001210  1
  Ta  Ta1  1  0.49998657  0.49997654  0.49997754  1
  Re  Re2  1  0.24999836  0.24999875  0.24999875  1
  Ru  Ru3  1  0.75000070  0.75000961  0.75000961  1
