# generated using pymatgen
data_Sr2Sn
_symmetry_space_group_name_H-M   'P 1'
_cell_length_a   5.37720745
_cell_length_b   8.45901413
_cell_length_c   10.10101403
_cell_angle_alpha   90.00003173
_cell_angle_beta   90.00000000
_cell_angle_gamma   90.00000000
_symmetry_Int_Tables_number   1
_chemical_formula_structural   Sr2Sn
_chemical_formula_sum   'Sr8 Sn4'
_cell_volume   459.45344942
_cell_formula_units_Z   4
loop_
 _symmetry_equiv_pos_site_id
 _symmetry_equiv_pos_as_xyz
  1  'x, y, z'
loop_
 _atom_site_type_symbol
 _atom_site_label
 _atom_site_symmetry_multiplicity
 _atom_site_fract_x
 _atom_site_fract_y
 _atom_site_fract_z
 _atom_site_occupancy
  Sr  Sr0  1  0.25000000  0.47875022  0.82014817  1
  Sr  Sr1  1  0.75000000  0.52126201  0.17985977  1
  Sr  Sr2  1  0.25000000  0.97875022  0.67985183  1
  Sr  Sr3  1  0.75000000  0.02126201  0.32014023  1
  Sr  Sr4  1  0.74999900  0.15492734  0.92622622  1
  Sr  Sr5  1  0.24999900  0.84507204  0.07376946  1
  Sr  Sr6  1  0.74999900  0.65492734  0.57377378  1
  Sr  Sr7  1  0.24999900  0.34507204  0.42623054  1
  Sn  Sn8  1  0.25000100  0.74833640  0.39353020  1
  Sn  Sn9  1  0.75000100  0.25165199  0.60647814  1
  Sn  Sn10  1  0.25000100  0.24833740  0.10646880  1
  Sn  Sn11  1  0.75000100  0.75165099  0.89352186  1
