# generated using pymatgen
data_Hf3Si3Ni2
_symmetry_space_group_name_H-M   'P 1'
_cell_length_a   3.81922179
_cell_length_b   5.25081174
_cell_length_c   12.85105857
_cell_angle_alpha   90.00000000
_cell_angle_beta   90.00000000
_cell_angle_gamma   111.32632553
_symmetry_Int_Tables_number   1
_chemical_formula_structural   Hf3Si3Ni2
_chemical_formula_sum   'Hf6 Si6 Ni4'
_cell_volume   240.06806099
_cell_formula_units_Z   2
loop_
 _symmetry_equiv_pos_site_id
 _symmetry_equiv_pos_as_xyz
  1  'x, y, z'
loop_
 _atom_site_type_symbol
 _atom_site_label
 _atom_site_symmetry_multiplicity
 _atom_site_fract_x
 _atom_site_fract_y
 _atom_site_fract_z
 _atom_site_occupancy
  Hf  Hf0  1  0.86614083  0.73228166  0.25000000  1
  Hf  Hf1  1  0.13385917  0.26771834  0.75000000  1
  Hf  Hf2  1  0.42640521  0.85281142  0.61768593  1
  Hf  Hf3  1  0.57359479  0.14718858  0.38231407  1
  Hf  Hf4  1  0.57359479  0.14718858  0.11768593  1
  Hf  Hf5  1  0.42640521  0.85281142  0.88231407  1
  Si  Si6  1  0.16073292  0.32146685  0.25000000  1
  Si  Si7  1  0.83926708  0.67853315  0.75000000  1
  Si  Si8  1  0.11194099  0.22388098  0.54073199  1
  Si  Si9  1  0.88805901  0.77611902  0.45926801  1
  Si  Si10  1  0.88805901  0.77611902  0.04073199  1
  Si  Si11  1  0.11194099  0.22388098  0.95926801  1
  Ni  Ni12  1  0.71882240  0.43764479  0.91111238  1
  Ni  Ni13  1  0.28117760  0.56235521  0.08888762  1
  Ni  Ni14  1  0.28117760  0.56235521  0.41111238  1
  Ni  Ni15  1  0.71882240  0.43764479  0.58888762  1
