# generated using pymatgen
data_HoTlRh2
_symmetry_space_group_name_H-M   'P 1'
_cell_length_a   4.68391705
_cell_length_b   4.68285275
_cell_length_c   4.68269720
_cell_angle_alpha   60.01574677
_cell_angle_beta   59.99317925
_cell_angle_gamma   59.99144066
_symmetry_Int_Tables_number   1
_chemical_formula_structural   HoTlRh2
_chemical_formula_sum   'Ho1 Tl1 Rh2'
_cell_volume   72.62763951
_cell_formula_units_Z   1
loop_
 _symmetry_equiv_pos_site_id
 _symmetry_equiv_pos_as_xyz
  1  'x, y, z'
loop_
 _atom_site_type_symbol
 _atom_site_label
 _atom_site_symmetry_multiplicity
 _atom_site_fract_x
 _atom_site_fract_y
 _atom_site_fract_z
 _atom_site_occupancy
  Ho  Ho0  1  0.25000165  0.25000017  0.25000103  1
  Tl  Tl1  1  0.75000002  0.75000083  0.75000094  1
  Rh  Rh2  1  0.99999853  0.99999931  0.00000590  1
  Rh  Rh3  1  0.50000080  0.50000169  0.49999613  1
