# generated using pymatgen
data_Ca3SnH2
_symmetry_space_group_name_H-M   'P 1'
_cell_length_a   5.23839630
_cell_length_b   7.22030012
_cell_length_c   7.22030012
_cell_angle_alpha   104.49953036
_cell_angle_beta   90.00000000
_cell_angle_gamma   90.00000000
_symmetry_Int_Tables_number   1
_chemical_formula_structural   Ca3SnH2
_chemical_formula_sum   'Ca6 Sn2 H4'
_cell_volume   264.39385860
_cell_formula_units_Z   2
loop_
 _symmetry_equiv_pos_site_id
 _symmetry_equiv_pos_as_xyz
  1  'x, y, z'
loop_
 _atom_site_type_symbol
 _atom_site_label
 _atom_site_symmetry_multiplicity
 _atom_site_fract_x
 _atom_site_fract_y
 _atom_site_fract_z
 _atom_site_occupancy
  Ca  Ca0  1  0.25000000  0.88959802  0.11040198  1
  Ca  Ca1  1  0.25000000  0.40768442  0.18645519  1
  Ca  Ca2  1  0.75000000  0.18645519  0.40768442  1
  Ca  Ca3  1  0.25000000  0.81354481  0.59231558  1
  Ca  Ca4  1  0.75000000  0.59231558  0.81354481  1
  Ca  Ca5  1  0.75000000  0.11040198  0.88959802  1
  Sn  Sn6  1  0.75000000  0.69330769  0.30669231  1
  Sn  Sn7  1  0.25000000  0.30669231  0.69330769  1
  H  H8  1  0.00000000  0.15099426  0.15099426  1
  H  H9  1  0.50000000  0.15099426  0.15099426  1
  H  H10  1  -0.00000000  0.84900574  0.84900574  1
  H  H11  1  0.50000000  0.84900574  0.84900574  1
