# generated using pymatgen
data_V2ReW
_symmetry_space_group_name_H-M   'P 1'
_cell_length_a   4.31016475
_cell_length_b   4.30916143
_cell_length_c   4.30957112
_cell_angle_alpha   59.97405976
_cell_angle_beta   59.98303600
_cell_angle_gamma   59.97690757
_symmetry_Int_Tables_number   1
_chemical_formula_structural   V2ReW
_chemical_formula_sum   'V2 Re1 W1'
_cell_volume   56.57036587
_cell_formula_units_Z   1
loop_
 _symmetry_equiv_pos_site_id
 _symmetry_equiv_pos_as_xyz
  1  'x, y, z'
loop_
 _atom_site_type_symbol
 _atom_site_label
 _atom_site_symmetry_multiplicity
 _atom_site_fract_x
 _atom_site_fract_y
 _atom_site_fract_z
 _atom_site_occupancy
  V  V0  1  0.00005435  0.00004857  0.00004246  1
  V  V1  1  0.49994778  0.49995135  0.49995473  1
  Re  Re2  1  0.25000348  0.24999590  0.24999506  1
  W  W3  1  0.74999540  0.75000418  0.75000575  1
