# generated using pymatgen
data_RbOsO3
_symmetry_space_group_name_H-M   'P 1'
_cell_length_a   5.46965664
_cell_length_b   5.48328064
_cell_length_c   6.92761349
_cell_angle_alpha   66.78673358
_cell_angle_beta   66.84335152
_cell_angle_gamma   59.91492004
_symmetry_Int_Tables_number   1
_chemical_formula_structural   RbOsO3
_chemical_formula_sum   'Rb2 Os2 O6'
_cell_volume   160.14665193
_cell_formula_units_Z   2
loop_
 _symmetry_equiv_pos_site_id
 _symmetry_equiv_pos_as_xyz
  1  'x, y, z'
loop_
 _atom_site_type_symbol
 _atom_site_label
 _atom_site_symmetry_multiplicity
 _atom_site_fract_x
 _atom_site_fract_y
 _atom_site_fract_z
 _atom_site_occupancy
  Rb  Rb0  1  0.86370503  0.86203225  0.41192848  1
  Rb  Rb1  1  0.13629862  0.13796748  0.58806626  1
  Os  Os2  1  0.66525903  0.66609215  0.00247962  1
  Os  Os3  1  0.33473901  0.33390356  0.99752753  1
  O  O4  1  0.46719483  0.64918739  0.82716335  1
  O  O5  1  0.05497891  0.46615138  0.82789904  1
  O  O6  1  0.64927651  0.05524335  0.82717891  1
  O  O7  1  0.53278229  0.35079420  0.17283834  1
  O  O8  1  0.35070624  0.94479731  0.17282061  1
  O  O9  1  0.94506354  0.53382593  0.17209986  1
