# generated using pymatgen
data_Yb(MnAs)2
_symmetry_space_group_name_H-M   'P 1'
_cell_length_a   4.12588138
_cell_length_b   4.12588138
_cell_length_c   6.84731505
_cell_angle_alpha   90.00000000
_cell_angle_beta   90.00000000
_cell_angle_gamma   120.00000039
_symmetry_Int_Tables_number   1
_chemical_formula_structural   Yb(MnAs)2
_chemical_formula_sum   'Yb1 Mn2 As2'
_cell_volume   100.94490815
_cell_formula_units_Z   1
loop_
 _symmetry_equiv_pos_site_id
 _symmetry_equiv_pos_as_xyz
  1  'x, y, z'
loop_
 _atom_site_type_symbol
 _atom_site_label
 _atom_site_symmetry_multiplicity
 _atom_site_fract_x
 _atom_site_fract_y
 _atom_site_fract_z
 _atom_site_occupancy
  Yb  Yb0  1  0.00000000  0.00000000  0.00000000  1
  Mn  Mn1  1  0.66666700  0.33333300  0.37129177  1
  Mn  Mn2  1  0.33333300  0.66666700  0.62870823  1
  As  As3  1  0.66666700  0.33333300  0.76217673  1
  As  As4  1  0.33333300  0.66666700  0.23782327  1
