# generated using pymatgen
data_Sm2TlAg
_symmetry_space_group_name_H-M   'P 1'
_cell_length_a   5.34244995
_cell_length_b   5.34244848
_cell_length_c   5.34244774
_cell_angle_alpha   59.99998630
_cell_angle_beta   59.99996799
_cell_angle_gamma   59.99993608
_symmetry_Int_Tables_number   1
_chemical_formula_structural   Sm2TlAg
_chemical_formula_sum   'Sm2 Tl1 Ag1'
_cell_volume   107.82158960
_cell_formula_units_Z   1
loop_
 _symmetry_equiv_pos_site_id
 _symmetry_equiv_pos_as_xyz
  1  'x, y, z'
loop_
 _atom_site_type_symbol
 _atom_site_label
 _atom_site_symmetry_multiplicity
 _atom_site_fract_x
 _atom_site_fract_y
 _atom_site_fract_z
 _atom_site_occupancy
  Sm  Sm0  1  -0.00000000  0.00000000  0.00000000  1
  Sm  Sm1  1  0.50000000  0.50000000  0.50000000  1
  Tl  Tl2  1  0.75000100  0.75000100  0.75000100  1
  Ag  Ag3  1  0.25000000  0.25000000  0.25000000  1
