# generated using pymatgen
data_Th7Te12
_symmetry_space_group_name_H-M   'P 1'
_cell_length_a   12.56694030
_cell_length_b   12.56647261
_cell_length_c   4.38759031
_cell_angle_alpha   90.00000000
_cell_angle_beta   90.00000000
_cell_angle_gamma   119.99983643
_symmetry_Int_Tables_number   1
_chemical_formula_structural   Th7Te12
_chemical_formula_sum   'Th7 Te12'
_cell_volume   600.06784712
_cell_formula_units_Z   1
loop_
 _symmetry_equiv_pos_site_id
 _symmetry_equiv_pos_as_xyz
  1  'x, y, z'
loop_
 _atom_site_type_symbol
 _atom_site_label
 _atom_site_symmetry_multiplicity
 _atom_site_fract_x
 _atom_site_fract_y
 _atom_site_fract_z
 _atom_site_occupancy
  Th  Th0  1  0.72313868  0.16200116  -0.00000000  1
  Th  Th1  1  0.83798128  0.56112789  0.00000000  1
  Th  Th2  1  0.43885965  0.27684975  0.00000000  1
  Th  Th3  1  0.54865823  0.71210324  0.50000000  1
  Th  Th4  1  0.28791633  0.83657892  0.50000000  1
  Th  Th5  1  0.16343595  0.45133989  0.50000000  1
  Th  Th6  1  0.00000013  0.00001186  0.00000000  1
  Te  Te7  1  0.74406337  0.75292287  0.00000000  1
  Te  Te8  1  0.24707816  0.99113065  0.00000000  1
  Te  Te9  1  0.00885040  0.25594061  -0.00000000  1
  Te  Te10  1  0.49191354  0.86710972  -0.00000000  1
  Te  Te11  1  0.13290582  0.62481959  -0.00000000  1
  Te  Te12  1  0.37519728  0.50808395  -0.00000000  1
  Te  Te13  1  0.86451263  0.38657732  0.50000000  1
  Te  Te14  1  0.21806669  0.21356355  0.50000000  1
  Te  Te15  1  0.99550431  0.78193859  0.50000000  1
  Te  Te16  1  0.78644215  0.00448111  0.50000000  1
  Te  Te17  1  0.52205743  0.13548546  0.50000000  1
  Te  Te18  1  0.61341999  0.47793487  0.50000000  1
