# generated using pymatgen
data_TbSc
_symmetry_space_group_name_H-M   'P 1'
_cell_length_a   3.50028551
_cell_length_b   3.50036288
_cell_length_c   5.38917681
_cell_angle_alpha   90.00163248
_cell_angle_beta   89.99807183
_cell_angle_gamma   119.99721266
_symmetry_Int_Tables_number   1
_chemical_formula_structural   TbSc
_chemical_formula_sum   'Tb1 Sc1'
_cell_volume   57.18495726
_cell_formula_units_Z   1
loop_
 _symmetry_equiv_pos_site_id
 _symmetry_equiv_pos_as_xyz
  1  'x, y, z'
loop_
 _atom_site_type_symbol
 _atom_site_label
 _atom_site_symmetry_multiplicity
 _atom_site_fract_x
 _atom_site_fract_y
 _atom_site_fract_z
 _atom_site_occupancy
  Tb  Tb0  1  0.33332612  0.66671339  0.25004058  1
  Sc  Sc1  1  0.66667388  0.33328561  0.74996042  1
