# generated using pymatgen
data_HoCoC2
_symmetry_space_group_name_H-M   'P 1'
_cell_length_a   3.52794265
_cell_length_b   3.72013127
_cell_length_c   3.72013051
_cell_angle_alpha   106.23388305
_cell_angle_beta   90.00000000
_cell_angle_gamma   90.00000000
_symmetry_Int_Tables_number   1
_chemical_formula_structural   HoCoC2
_chemical_formula_sum   'Ho1 Co1 C2'
_cell_volume   46.87781200
_cell_formula_units_Z   1
loop_
 _symmetry_equiv_pos_site_id
 _symmetry_equiv_pos_as_xyz
  1  'x, y, z'
loop_
 _atom_site_type_symbol
 _atom_site_label
 _atom_site_symmetry_multiplicity
 _atom_site_fract_x
 _atom_site_fract_y
 _atom_site_fract_z
 _atom_site_occupancy
  Ho  Ho0  1  0.00000000  0.99870238  0.00129762  1
  Co  Co1  1  0.50000000  0.61463064  0.38536936  1
  C  C2  1  0.50000000  0.45997563  0.84830964  1
  C  C3  1  0.50000000  0.15169036  0.54002437  1
