# generated using pymatgen
data_NiAuO2
_symmetry_space_group_name_H-M   'P 1'
_cell_length_a   2.95432880
_cell_length_b   2.95432880
_cell_length_c   12.06804777
_cell_angle_alpha   90.00000000
_cell_angle_beta   90.00000000
_cell_angle_gamma   119.99999650
_symmetry_Int_Tables_number   1
_chemical_formula_structural   NiAuO2
_chemical_formula_sum   'Ni2 Au2 O4'
_cell_volume   91.21900381
_cell_formula_units_Z   2
loop_
 _symmetry_equiv_pos_site_id
 _symmetry_equiv_pos_as_xyz
  1  'x, y, z'
loop_
 _atom_site_type_symbol
 _atom_site_label
 _atom_site_symmetry_multiplicity
 _atom_site_fract_x
 _atom_site_fract_y
 _atom_site_fract_z
 _atom_site_occupancy
  Ni  Ni0  1  -0.00000000  0.00000000  0.00000000  1
  Ni  Ni1  1  -0.00000000  0.00000000  0.50000000  1
  Au  Au2  1  0.33333300  0.66666700  0.24998166  1
  Au  Au3  1  0.66666700  0.33333300  0.75001834  1
  O  O4  1  0.66666700  0.33333300  0.58152515  1
  O  O5  1  0.33333300  0.66666700  0.41847385  1
  O  O6  1  0.66666700  0.33333300  0.91856232  1
  O  O7  1  0.33333300  0.66666700  0.08143868  1
