# generated using pymatgen
data_H2
_symmetry_space_group_name_H-M   'P 1'
_cell_length_a   4.14181800
_cell_length_b   5.24696276
_cell_length_c   3.66828489
_cell_angle_alpha   44.40740465
_cell_angle_beta   90.00000000
_cell_angle_gamma   90.00000000
_symmetry_Int_Tables_number   1
_chemical_formula_structural   H2
_chemical_formula_sum   H4
_cell_volume   55.78384895
_cell_formula_units_Z   2
loop_
 _symmetry_equiv_pos_site_id
 _symmetry_equiv_pos_as_xyz
  1  'x, y, z'
loop_
 _atom_site_type_symbol
 _atom_site_label
 _atom_site_symmetry_multiplicity
 _atom_site_fract_x
 _atom_site_fract_y
 _atom_site_fract_z
 _atom_site_occupancy
  H  H0  1  0.56850889  0.95329513  0.09303923  1
  H  H1  1  0.93149311  0.45329513  0.09304023  1
  H  H2  1  0.06850689  0.54670587  0.90695877  1
  H  H3  1  0.43149111  0.04670387  0.90696077  1
