# generated using pymatgen
data_PrEr3
_symmetry_space_group_name_H-M   'P 1'
_cell_length_a   5.04441968
_cell_length_b   5.04523204
_cell_length_c   5.04519965
_cell_angle_alpha   89.99895179
_cell_angle_beta   89.99794386
_cell_angle_gamma   89.99863473
_symmetry_Int_Tables_number   1
_chemical_formula_structural   PrEr3
_chemical_formula_sum   'Pr1 Er3'
_cell_volume   128.40168209
_cell_formula_units_Z   1
loop_
 _symmetry_equiv_pos_site_id
 _symmetry_equiv_pos_as_xyz
  1  'x, y, z'
loop_
 _atom_site_type_symbol
 _atom_site_label
 _atom_site_symmetry_multiplicity
 _atom_site_fract_x
 _atom_site_fract_y
 _atom_site_fract_z
 _atom_site_occupancy
  Pr  Pr0  1  0.00000906  0.99999027  0.99999138  1
  Er  Er1  1  0.99999391  0.50000532  0.50000469  1
  Er  Er2  1  0.49999500  0.99999012  0.50000476  1
  Er  Er3  1  0.50000403  0.50001428  -0.00000184  1
