# generated using pymatgen
data_Tl3Pb
_symmetry_space_group_name_H-M   'P 1'
_cell_length_a   7.08143795
_cell_length_b   7.08143747
_cell_length_c   5.59028282
_cell_angle_alpha   90.00000000
_cell_angle_beta   90.00000000
_cell_angle_gamma   119.99999212
_symmetry_Int_Tables_number   1
_chemical_formula_structural   Tl3Pb
_chemical_formula_sum   'Tl6 Pb2'
_cell_volume   242.77687959
_cell_formula_units_Z   2
loop_
 _symmetry_equiv_pos_site_id
 _symmetry_equiv_pos_as_xyz
  1  'x, y, z'
loop_
 _atom_site_type_symbol
 _atom_site_label
 _atom_site_symmetry_multiplicity
 _atom_site_fract_x
 _atom_site_fract_y
 _atom_site_fract_z
 _atom_site_occupancy
  Tl  Tl0  1  0.83247601  0.16752299  0.75000000  1
  Tl  Tl1  1  0.33504798  0.16752299  0.75000000  1
  Tl  Tl2  1  0.83247701  0.66495102  0.75000000  1
  Tl  Tl3  1  0.16752499  0.83247701  0.25000100  1
  Tl  Tl4  1  0.66495202  0.83247701  0.25000100  1
  Tl  Tl5  1  0.16752299  0.33504698  0.25000100  1
  Pb  Pb6  1  0.66666600  0.33333300  0.25000100  1
  Pb  Pb7  1  0.33333300  0.66666700  0.75000000  1
