# generated using pymatgen
data_MnAgO2
_symmetry_space_group_name_H-M   'P 1'
_cell_length_a   2.90318675
_cell_length_b   3.13088246
_cell_length_c   6.34860802
_cell_angle_alpha   100.55490576
_cell_angle_beta   89.99998743
_cell_angle_gamma   117.62204861
_symmetry_Int_Tables_number   1
_chemical_formula_structural   MnAgO2
_chemical_formula_sum   'Mn1 Ag1 O2'
_cell_volume   50.02428544
_cell_formula_units_Z   1
loop_
 _symmetry_equiv_pos_site_id
 _symmetry_equiv_pos_as_xyz
  1  'x, y, z'
loop_
 _atom_site_type_symbol
 _atom_site_label
 _atom_site_symmetry_multiplicity
 _atom_site_fract_x
 _atom_site_fract_y
 _atom_site_fract_z
 _atom_site_occupancy
  Mn  Mn0  1  0.50000000  0.00000000  0.50000000  1
  Ag  Ag1  1  0.00000000  0.00000000  0.00000000  1
  O  O2  1  0.10099056  0.20198213  0.33561696  1
  O  O3  1  0.89900944  0.79801787  0.66438304  1
