# generated using pymatgen
data_Si4MoPt3
_symmetry_space_group_name_H-M   'P 1'
_cell_length_a   3.49522379
_cell_length_b   5.53584079
_cell_length_c   24.47422252
_cell_angle_alpha   90.00000000
_cell_angle_beta   90.00000000
_cell_angle_gamma   90.00000000
_symmetry_Int_Tables_number   1
_chemical_formula_structural   Si4MoPt3
_chemical_formula_sum   'Si16 Mo4 Pt12'
_cell_volume   473.55179094
_cell_formula_units_Z   4
loop_
 _symmetry_equiv_pos_site_id
 _symmetry_equiv_pos_as_xyz
  1  'x, y, z'
loop_
 _atom_site_type_symbol
 _atom_site_label
 _atom_site_symmetry_multiplicity
 _atom_site_fract_x
 _atom_site_fract_y
 _atom_site_fract_z
 _atom_site_occupancy
  Si  Si0  1  0.25000000  0.17955353  0.51925171  1
  Si  Si1  1  0.75000000  0.32044647  0.01925171  1
  Si  Si2  1  0.25000000  0.67955353  0.98074829  1
  Si  Si3  1  0.75000000  0.82044647  0.48074829  1
  Si  Si4  1  0.75000000  0.31943029  0.64565895  1
  Si  Si5  1  0.25000000  0.18056971  0.14565895  1
  Si  Si6  1  0.75000000  0.81943029  0.85434105  1
  Si  Si7  1  0.25000000  0.68056971  0.35434105  1
  Si  Si8  1  0.25000000  0.65944500  0.60977707  1
  Si  Si9  1  0.75000000  0.84055500  0.10977707  1
  Si  Si10  1  0.25000000  0.15944500  0.89022293  1
  Si  Si11  1  0.75000000  0.34055500  0.39022293  1
  Si  Si12  1  0.75000000  0.83216584  0.72569800  1
  Si  Si13  1  0.25000000  0.66783416  0.22569800  1
  Si  Si14  1  0.75000000  0.33216584  0.77430200  1
  Si  Si15  1  0.25000000  0.16783416  0.27430200  1
  Mo  Mo16  1  0.25000000  0.50421138  0.71010061  1
  Mo  Mo17  1  0.75000000  0.99578862  0.21010061  1
  Mo  Mo18  1  0.25000000  0.00421138  0.78989939  1
  Mo  Mo19  1  0.75000000  0.49578862  0.28989939  1
  Pt  Pt20  1  0.75000000  0.00334742  0.57408199  1
  Pt  Pt21  1  0.25000000  0.49665258  0.07408199  1
  Pt  Pt22  1  0.75000000  0.50334742  0.92591801  1
  Pt  Pt23  1  0.25000000  0.99665258  0.42591801  1
  Pt  Pt24  1  0.25000000  0.00254391  0.66937803  1
  Pt  Pt25  1  0.75000000  0.49745609  0.16937803  1
  Pt  Pt26  1  0.25000000  0.50254391  0.83062197  1
  Pt  Pt27  1  0.75000000  0.99745609  0.33062197  1
  Pt  Pt28  1  0.75000000  0.50329424  0.54837811  1
  Pt  Pt29  1  0.25000000  0.99670576  0.04837811  1
  Pt  Pt30  1  0.75000000  0.00329424  0.95162189  1
  Pt  Pt31  1  0.25000000  0.49670576  0.45162189  1
