# generated using pymatgen
data_HoNiGe2
_symmetry_space_group_name_H-M   'P 1'
_cell_length_a   8.61749573
_cell_length_b   8.61749573
_cell_length_c   4.07974983
_cell_angle_alpha   90.00000000
_cell_angle_beta   90.00000000
_cell_angle_gamma   27.24816536
_symmetry_Int_Tables_number   1
_chemical_formula_structural   HoNiGe2
_chemical_formula_sum   'Ho2 Ni2 Ge4'
_cell_volume   138.71217700
_cell_formula_units_Z   2
loop_
 _symmetry_equiv_pos_site_id
 _symmetry_equiv_pos_as_xyz
  1  'x, y, z'
loop_
 _atom_site_type_symbol
 _atom_site_label
 _atom_site_symmetry_multiplicity
 _atom_site_fract_x
 _atom_site_fract_y
 _atom_site_fract_z
 _atom_site_occupancy
  Ho  Ho0  1  0.89176734  0.89176734  0.75000000  1
  Ho  Ho1  1  0.10823166  0.10823166  0.25000000  1
  Ni  Ni2  1  0.67767873  0.67767873  0.75000000  1
  Ni  Ni3  1  0.32232027  0.32232027  0.25000000  1
  Ge  Ge4  1  0.74929668  0.74929668  0.25000000  1
  Ge  Ge5  1  0.54197494  0.54197494  0.75000000  1
  Ge  Ge6  1  0.45802506  0.45802506  0.25000000  1
  Ge  Ge7  1  0.25070232  0.25070232  0.75000000  1
