# generated using pymatgen
data_Ba(Sb3Ru)4
_symmetry_space_group_name_H-M   'P 1'
_cell_length_a   8.12397818
_cell_length_b   8.12397804
_cell_length_c   8.12397768
_cell_angle_alpha   109.47121462
_cell_angle_beta   109.47121423
_cell_angle_gamma   109.47122730
_symmetry_Int_Tables_number   1
_chemical_formula_structural   Ba(Sb3Ru)4
_chemical_formula_sum   'Ba1 Sb12 Ru4'
_cell_volume   412.74740438
_cell_formula_units_Z   1
loop_
 _symmetry_equiv_pos_site_id
 _symmetry_equiv_pos_as_xyz
  1  'x, y, z'
loop_
 _atom_site_type_symbol
 _atom_site_label
 _atom_site_symmetry_multiplicity
 _atom_site_fract_x
 _atom_site_fract_y
 _atom_site_fract_z
 _atom_site_occupancy
  Ba  Ba0  1  0.00000000  0.00000000  0.00000000  1
  Sb  Sb1  1  0.65552090  0.15991149  0.81543239  1
  Sb  Sb2  1  0.34447910  0.15991149  0.50439058  1
  Sb  Sb3  1  0.84008851  0.49560942  0.65552090  1
  Sb  Sb4  1  0.18456761  0.34447910  0.84008851  1
  Sb  Sb5  1  0.15991149  0.81543239  0.65552090  1
  Sb  Sb6  1  0.49560942  0.65552090  0.84008851  1
  Sb  Sb7  1  0.84008851  0.18456761  0.34447910  1
  Sb  Sb8  1  0.81543239  0.65552090  0.15991149  1
  Sb  Sb9  1  0.50439058  0.34447910  0.15991149  1
  Sb  Sb10  1  0.15991149  0.50439058  0.34447910  1
  Sb  Sb11  1  0.65552090  0.84008851  0.49560942  1
  Sb  Sb12  1  0.34447910  0.84008851  0.18456761  1
  Ru  Ru13  1  0.50000000  0.50000000  0.50000000  1
  Ru  Ru14  1  0.50000000  0.00000000  0.00000000  1
  Ru  Ru15  1  0.00000000  0.50000000  0.00000000  1
  Ru  Ru16  1  0.00000000  0.00000000  0.50000000  1
