# generated using pymatgen
data_RbTe
_symmetry_space_group_name_H-M   'P 1'
_cell_length_a   9.98960824
_cell_length_b   9.98961191
_cell_length_c   6.72769179
_cell_angle_alpha   90.00002091
_cell_angle_beta   90.00000000
_cell_angle_gamma   120.00005163
_symmetry_Int_Tables_number   1
_chemical_formula_structural   RbTe
_chemical_formula_sum   'Rb6 Te6'
_cell_volume   581.42481935
_cell_formula_units_Z   6
loop_
 _symmetry_equiv_pos_site_id
 _symmetry_equiv_pos_as_xyz
  1  'x, y, z'
loop_
 _atom_site_type_symbol
 _atom_site_label
 _atom_site_symmetry_multiplicity
 _atom_site_fract_x
 _atom_site_fract_y
 _atom_site_fract_z
 _atom_site_occupancy
  Rb  Rb0  1  0.65231318  0.00000000  0.00000000  1
  Rb  Rb1  1  0.34768682  0.34768682  0.00000000  1
  Rb  Rb2  1  0.00000000  0.65231318  -0.00000000  1
  Rb  Rb3  1  0.31734236  0.00000000  0.50000000  1
  Rb  Rb4  1  0.68265764  0.68265764  0.50000000  1
  Rb  Rb5  1  0.00000000  0.31734236  0.50000000  1
  Te  Te6  1  -0.00000000  -0.00000000  0.20779507  1
  Te  Te7  1  0.00000000  0.00000000  0.79220493  1
  Te  Te8  1  0.33333300  0.66666700  0.29136052  1
  Te  Te9  1  0.33333300  0.66666700  0.70863948  1
  Te  Te10  1  0.66666700  0.33333300  0.70863948  1
  Te  Te11  1  0.66666700  0.33333300  0.29136052  1
