# generated using pymatgen
data_TaGeRh
_symmetry_space_group_name_H-M   'P 1'
_cell_length_a   6.43496471
_cell_length_b   3.83345445
_cell_length_c   7.42821063
_cell_angle_alpha   90.00000000
_cell_angle_beta   90.00000000
_cell_angle_gamma   90.00000000
_symmetry_Int_Tables_number   1
_chemical_formula_structural   TaGeRh
_chemical_formula_sum   'Ta4 Ge4 Rh4'
_cell_volume   183.24017025
_cell_formula_units_Z   4
loop_
 _symmetry_equiv_pos_site_id
 _symmetry_equiv_pos_as_xyz
  1  'x, y, z'
loop_
 _atom_site_type_symbol
 _atom_site_label
 _atom_site_symmetry_multiplicity
 _atom_site_fract_x
 _atom_site_fract_y
 _atom_site_fract_z
 _atom_site_occupancy
  Ta  Ta0  1  0.52821655  0.75000000  0.17803020  1
  Ta  Ta1  1  0.02821655  0.75000000  0.32196980  1
  Ta  Ta2  1  0.97178445  0.25000000  0.67802920  1
  Ta  Ta3  1  0.47178445  0.25000000  0.82196980  1
  Ge  Ge4  1  0.24054782  0.25000000  0.12416366  1
  Ge  Ge5  1  0.74054882  0.25000000  0.37583634  1
  Ge  Ge6  1  0.25945218  0.75000000  0.62416366  1
  Ge  Ge7  1  0.75945118  0.75000000  0.87583634  1
  Rh  Rh8  1  0.85655672  0.25000000  0.06296950  1
  Rh  Rh9  1  0.35655772  0.25000000  0.43703050  1
  Rh  Rh10  1  0.64344228  0.75000000  0.56296850  1
  Rh  Rh11  1  0.14344228  0.75000000  0.93703050  1
