# generated using pymatgen
data_HoB4W
_symmetry_space_group_name_H-M   'P 1'
_cell_length_a   3.61035459
_cell_length_b   6.01479689
_cell_length_c   11.61890064
_cell_angle_alpha   90.00000000
_cell_angle_beta   90.00000000
_cell_angle_gamma   90.00000000
_symmetry_Int_Tables_number   1
_chemical_formula_structural   HoB4W
_chemical_formula_sum   'Ho4 B16 W4'
_cell_volume   252.31081268
_cell_formula_units_Z   4
loop_
 _symmetry_equiv_pos_site_id
 _symmetry_equiv_pos_as_xyz
  1  'x, y, z'
loop_
 _atom_site_type_symbol
 _atom_site_label
 _atom_site_symmetry_multiplicity
 _atom_site_fract_x
 _atom_site_fract_y
 _atom_site_fract_z
 _atom_site_occupancy
  Ho  Ho0  1  -0.00000000  0.12775136  0.14926613  1
  Ho  Ho1  1  0.00000000  0.87224864  0.85073387  1
  Ho  Ho2  1  -0.00000000  0.62775136  0.35073387  1
  Ho  Ho3  1  -0.00000000  0.37224864  0.64926613  1
  B  B4  1  0.50000000  0.47678454  0.19343054  1
  B  B5  1  0.50000000  0.52321546  0.80656946  1
  B  B6  1  0.50000000  0.97678454  0.30656946  1
  B  B7  1  0.50000000  0.02321546  0.69343054  1
  B  B8  1  0.50000000  0.28731924  0.31362434  1
  B  B9  1  0.50000000  0.71268076  0.68637566  1
  B  B10  1  0.50000000  0.78731924  0.18637566  1
  B  B11  1  0.50000000  0.21268076  0.81362434  1
  B  B12  1  0.50000000  0.36655568  0.46807647  1
  B  B13  1  0.50000000  0.63344432  0.53192353  1
  B  B14  1  0.50000000  0.86655568  0.03192353  1
  B  B15  1  0.50000000  0.13344432  0.96807647  1
  B  B16  1  0.50000000  0.38606451  0.04751283  1
  B  B17  1  0.50000000  0.61393549  0.95248717  1
  B  B18  1  0.50000000  0.88606451  0.45248717  1
  B  B19  1  0.50000000  0.11393549  0.54751283  1
  W  W20  1  -0.00000000  0.13060260  0.41581443  1
  W  W21  1  -0.00000000  0.86939740  0.58418557  1
  W  W22  1  -0.00000000  0.63060260  0.08418557  1
  W  W23  1  0.00000000  0.36939740  0.91581443  1
