# generated using pymatgen
data_TbFeC2
_symmetry_space_group_name_H-M   'P 1'
_cell_length_a   3.64420826
_cell_length_b   3.75053561
_cell_length_c   3.75053475
_cell_angle_alpha   105.54524005
_cell_angle_beta   90.00000000
_cell_angle_gamma   90.00000000
_symmetry_Int_Tables_number   1
_chemical_formula_structural   TbFeC2
_chemical_formula_sum   'Tb1 Fe1 C2'
_cell_volume   49.38612462
_cell_formula_units_Z   1
loop_
 _symmetry_equiv_pos_site_id
 _symmetry_equiv_pos_as_xyz
  1  'x, y, z'
loop_
 _atom_site_type_symbol
 _atom_site_label
 _atom_site_symmetry_multiplicity
 _atom_site_fract_x
 _atom_site_fract_y
 _atom_site_fract_z
 _atom_site_occupancy
  Tb  Tb0  1  -0.00000000  0.99161469  0.00838575  1
  Fe  Fe1  1  0.50000000  0.39157181  0.60842868  1
  C  C2  1  0.50000000  0.85593272  0.45411972  1
  C  C3  1  0.50000000  0.54588078  0.14406784  1
