# generated using pymatgen
data_LuGe2
_symmetry_space_group_name_H-M   'P 1'
_cell_length_a   8.20816870
_cell_length_b   8.20816870
_cell_length_c   3.83840487
_cell_angle_alpha   90.00000000
_cell_angle_beta   90.00000000
_cell_angle_gamma   27.66284731
_symmetry_Int_Tables_number   1
_chemical_formula_structural   LuGe2
_chemical_formula_sum   'Lu2 Ge4'
_cell_volume   120.06375388
_cell_formula_units_Z   2
loop_
 _symmetry_equiv_pos_site_id
 _symmetry_equiv_pos_as_xyz
  1  'x, y, z'
loop_
 _atom_site_type_symbol
 _atom_site_label
 _atom_site_symmetry_multiplicity
 _atom_site_fract_x
 _atom_site_fract_y
 _atom_site_fract_z
 _atom_site_occupancy
  Lu  Lu0  1  0.10563046  0.10563046  0.24999900  1
  Lu  Lu1  1  0.89436954  0.89436954  0.74999800  1
  Ge  Ge2  1  0.74487409  0.74487409  0.24999900  1
  Ge  Ge3  1  0.25512691  0.25512691  0.74999800  1
  Ge  Ge4  1  0.44881893  0.44881893  0.24999900  1
  Ge  Ge5  1  0.55118107  0.55118107  0.74999800  1
