# generated using pymatgen
data_Ba3Zr2S7
_symmetry_space_group_name_H-M   'P 1'
_cell_length_a   13.38193530
_cell_length_b   13.38193530
_cell_length_c   7.09534891
_cell_angle_alpha   90.00000000
_cell_angle_beta   90.00000000
_cell_angle_gamma   149.24911767
_symmetry_Int_Tables_number   1
_chemical_formula_structural   Ba3Zr2S7
_chemical_formula_sum   'Ba6 Zr4 S14'
_cell_volume   649.66993524
_cell_formula_units_Z   2
loop_
 _symmetry_equiv_pos_site_id
 _symmetry_equiv_pos_as_xyz
  1  'x, y, z'
loop_
 _atom_site_type_symbol
 _atom_site_label
 _atom_site_symmetry_multiplicity
 _atom_site_fract_x
 _atom_site_fract_y
 _atom_site_fract_z
 _atom_site_occupancy
  Ba  Ba0  1  0.81871359  0.68103251  0.00000000  1
  Ba  Ba1  1  0.18128641  0.31896749  0.00000000  1
  Ba  Ba2  1  0.31896749  0.18128641  0.50000000  1
  Ba  Ba3  1  0.68103251  0.81871359  0.50000000  1
  Ba  Ba4  1  0.50000000  -0.00000000  0.50000000  1
  Ba  Ba5  1  0.00000000  0.50000000  0.00000000  1
  Zr  Zr6  1  0.59998567  0.90022254  0.00000000  1
  Zr  Zr7  1  0.90022254  0.59998567  0.50000000  1
  Zr  Zr8  1  0.40001433  0.09977746  -0.00000000  1
  Zr  Zr9  1  0.09977746  0.40001433  0.50000000  1
  S  S10  1  0.65399007  0.34600993  0.75000000  1
  S  S11  1  0.65399007  0.34600993  0.25000000  1
  S  S12  1  0.50000000  -0.00000000  0.00000000  1
  S  S13  1  0.15409190  0.84590810  0.75000000  1
  S  S14  1  0.69802203  0.80258755  -0.00000000  1
  S  S15  1  0.34600993  0.65399007  0.25000000  1
  S  S16  1  0.84590810  0.15409190  0.25000000  1
  S  S17  1  0.19741245  0.30197797  0.50000000  1
  S  S18  1  0.00000000  0.50000000  0.50000000  1
  S  S19  1  0.34600993  0.65399007  0.75000000  1
  S  S20  1  0.30197797  0.19741245  0.00000000  1
  S  S21  1  0.15409190  0.84590810  0.25000000  1
  S  S22  1  0.84590810  0.15409190  0.75000000  1
  S  S23  1  0.80258755  0.69802203  0.50000000  1
