# generated using pymatgen
data_TaInSe2
_symmetry_space_group_name_H-M   'P 1'
_cell_length_a   3.44100341
_cell_length_b   3.44095500
_cell_length_c   9.34789598
_cell_angle_alpha   90.00000000
_cell_angle_beta   90.00000000
_cell_angle_gamma   120.00045529
_symmetry_Int_Tables_number   1
_chemical_formula_structural   TaInSe2
_chemical_formula_sum   'Ta1 In1 Se2'
_cell_volume   95.85319795
_cell_formula_units_Z   1
loop_
 _symmetry_equiv_pos_site_id
 _symmetry_equiv_pos_as_xyz
  1  'x, y, z'
loop_
 _atom_site_type_symbol
 _atom_site_label
 _atom_site_symmetry_multiplicity
 _atom_site_fract_x
 _atom_site_fract_y
 _atom_site_fract_z
 _atom_site_occupancy
  Ta  Ta0  1  0.33321517  0.66643135  0.50000000  1
  In  In1  1  0.00037848  0.00075596  0.00000000  1
  Se  Se2  1  0.99985267  0.99970634  0.67707679  1
  Se  Se3  1  0.99985267  0.99970634  0.32292321  1
