# generated using pymatgen
data_La(BIr)4
_symmetry_space_group_name_H-M   'P 1'
_cell_length_a   3.97242416
_cell_length_b   7.72486299
_cell_length_c   7.72486299
_cell_angle_alpha   90.00000000
_cell_angle_beta   90.00000000
_cell_angle_gamma   90.00000000
_symmetry_Int_Tables_number   1
_chemical_formula_structural   La(BIr)4
_chemical_formula_sum   'La2 B8 Ir8'
_cell_volume   237.04848576
_cell_formula_units_Z   2
loop_
 _symmetry_equiv_pos_site_id
 _symmetry_equiv_pos_as_xyz
  1  'x, y, z'
loop_
 _atom_site_type_symbol
 _atom_site_label
 _atom_site_symmetry_multiplicity
 _atom_site_fract_x
 _atom_site_fract_y
 _atom_site_fract_z
 _atom_site_occupancy
  La  La0  1  0.25000000  0.75000000  0.75000000  1
  La  La1  1  0.75000000  0.25000000  0.25000000  1
  B  B2  1  0.85567718  0.02973762  0.90827399  1
  B  B3  1  0.14432282  0.52973762  0.40827399  1
  B  B4  1  0.35567718  0.09172601  0.52973762  1
  B  B5  1  0.35567718  0.40827399  0.97026238  1
  B  B6  1  0.85567718  0.47026238  0.59172601  1
  B  B7  1  0.14432282  0.97026238  0.09172601  1
  B  B8  1  0.64432282  0.90827399  0.47026238  1
  B  B9  1  0.64432282  0.59172601  0.02973762  1
  Ir  Ir10  1  0.35606352  0.35929637  0.59108825  1
  Ir  Ir11  1  0.35606352  0.14070363  0.90891175  1
  Ir  Ir12  1  0.85606352  0.40891175  0.85929637  1
  Ir  Ir13  1  0.14393648  0.90891175  0.35929637  1
  Ir  Ir14  1  0.64393648  0.64070363  0.40891175  1
  Ir  Ir15  1  0.64393648  0.85929637  0.09108825  1
  Ir  Ir16  1  0.14393648  0.59108825  0.14070363  1
  Ir  Ir17  1  0.85606352  0.09108825  0.64070363  1
