# generated using pymatgen
data_Te3As2
_symmetry_space_group_name_H-M   'P 1'
_cell_length_a   7.03519028
_cell_length_b   10.49585363
_cell_length_c   16.27246178
_cell_angle_alpha   90.00000000
_cell_angle_beta   90.00000000
_cell_angle_gamma   102.73435970
_symmetry_Int_Tables_number   1
_chemical_formula_structural   Te3As2
_chemical_formula_sum   'Te24 As16'
_cell_volume   1172.00847140
_cell_formula_units_Z   8
loop_
 _symmetry_equiv_pos_site_id
 _symmetry_equiv_pos_as_xyz
  1  'x, y, z'
loop_
 _atom_site_type_symbol
 _atom_site_label
 _atom_site_symmetry_multiplicity
 _atom_site_fract_x
 _atom_site_fract_y
 _atom_site_fract_z
 _atom_site_occupancy
  Te  Te0  1  -0.00000000  0.00000000  0.50000000  1
  Te  Te1  1  -0.00000000  0.00000000  -0.00000000  1
  Te  Te2  1  -0.00005042  0.00017827  0.75000000  1
  Te  Te3  1  0.00005042  -0.00017827  0.25000000  1
  Te  Te4  1  0.50036022  0.00041438  0.62486716  1
  Te  Te5  1  0.49963978  -0.00041438  0.12486716  1
  Te  Te6  1  0.49963978  -0.00041438  0.37513284  1
  Te  Te7  1  0.50036022  0.00041438  0.87513284  1
  Te  Te8  1  0.77746390  0.33641094  0.49994876  1
  Te  Te9  1  0.22253610  0.66358906  -0.00005124  1
  Te  Te10  1  0.22253610  0.66358906  0.50005124  1
  Te  Te11  1  0.77746390  0.33641094  0.00005124  1
  Te  Te12  1  0.77771809  0.33630018  0.75000000  1
  Te  Te13  1  0.22228191  0.66369982  0.25000000  1
  Te  Te14  1  0.77703730  0.33669947  0.25000000  1
  Te  Te15  1  0.22296270  0.66330053  0.75000000  1
  Te  Te16  1  0.27762700  0.33597271  0.62489335  1
  Te  Te17  1  0.72237300  0.66402729  0.12489335  1
  Te  Te18  1  0.72237300  0.66402729  0.37510665  1
  Te  Te19  1  0.27762700  0.33597271  0.87510665  1
  Te  Te20  1  0.27702936  0.33587701  0.12509830  1
  Te  Te21  1  0.72297064  0.66412299  0.62509830  1
  Te  Te22  1  0.72297064  0.66412299  0.87490170  1
  Te  Te23  1  0.27702936  0.33587701  0.37490170  1
  As  As24  1  0.60795419  0.81845814  0.75000000  1
  As  As25  1  0.39204581  0.18154186  0.25000000  1
  As  As26  1  0.60593130  0.81821851  0.25000000  1
  As  As27  1  0.39406870  0.18178149  0.75000000  1
  As  As28  1  0.60613936  0.81940786  0.49977377  1
  As  As29  1  0.39386064  0.18059214  -0.00022623  1
  As  As30  1  0.39386064  0.18059214  0.50022623  1
  As  As31  1  0.60613936  0.81940786  0.00022623  1
  As  As32  1  0.89286047  0.18098608  0.62497350  1
  As  As33  1  0.10713953  0.81901392  0.12497350  1
  As  As34  1  0.10713953  0.81901392  0.37502650  1
  As  As35  1  0.89286047  0.18098608  0.87502650  1
  As  As36  1  0.89296946  0.18169726  0.12502499  1
  As  As37  1  0.10703054  0.81830274  0.62502499  1
  As  As38  1  0.10703054  0.81830274  0.87497501  1
  As  As39  1  0.89296946  0.18169726  0.37497501  1
