# generated using pymatgen
data_Ho3Tm
_symmetry_space_group_name_H-M   'P 1'
_cell_length_a   7.19903045
_cell_length_b   7.19903013
_cell_length_c   5.53560358
_cell_angle_alpha   90.00000000
_cell_angle_beta   90.00000000
_cell_angle_gamma   120.00002933
_symmetry_Int_Tables_number   1
_chemical_formula_structural   Ho3Tm
_chemical_formula_sum   'Ho6 Tm2'
_cell_volume   248.45256597
_cell_formula_units_Z   2
loop_
 _symmetry_equiv_pos_site_id
 _symmetry_equiv_pos_as_xyz
  1  'x, y, z'
loop_
 _atom_site_type_symbol
 _atom_site_label
 _atom_site_symmetry_multiplicity
 _atom_site_fract_x
 _atom_site_fract_y
 _atom_site_fract_z
 _atom_site_occupancy
  Ho  Ho0  1  0.16687119  0.33374238  0.25000100  1
  Ho  Ho1  1  0.66625862  0.83312881  0.25000100  1
  Ho  Ho2  1  0.16687019  0.83312881  0.25000100  1
  Ho  Ho3  1  0.83312881  0.66625762  0.75000100  1
  Ho  Ho4  1  0.33374138  0.16687119  0.75000100  1
  Ho  Ho5  1  0.83312881  0.16687119  0.75000100  1
  Tm  Tm6  1  0.33333400  0.66666700  0.75000100  1
  Tm  Tm7  1  0.66666700  0.33333300  0.25000100  1
