# generated using pymatgen
data_CsAg5Te3
_symmetry_space_group_name_H-M   'P 1'
_cell_length_a   14.79655142
_cell_length_b   14.79655142
_cell_length_c   4.60427631
_cell_angle_alpha   90.00000000
_cell_angle_beta   90.00000000
_cell_angle_gamma   90.00000000
_symmetry_Int_Tables_number   1
_chemical_formula_structural   CsAg5Te3
_chemical_formula_sum   'Cs4 Ag20 Te12'
_cell_volume   1008.05074253
_cell_formula_units_Z   4
loop_
 _symmetry_equiv_pos_site_id
 _symmetry_equiv_pos_as_xyz
  1  'x, y, z'
loop_
 _atom_site_type_symbol
 _atom_site_label
 _atom_site_symmetry_multiplicity
 _atom_site_fract_x
 _atom_site_fract_y
 _atom_site_fract_z
 _atom_site_occupancy
  Cs  Cs0  1  0.88768060  0.11231940  0.50000000  1
  Cs  Cs1  1  0.61231940  0.61231940  0.00000000  1
  Cs  Cs2  1  0.38768060  0.38768060  0.00000000  1
  Cs  Cs3  1  0.11231940  0.88768060  0.50000000  1
  Ag  Ag4  1  0.67826873  0.32173127  0.00000000  1
  Ag  Ag5  1  0.82173127  0.82173127  0.50000000  1
  Ag  Ag6  1  0.17826873  0.17826873  0.50000000  1
  Ag  Ag7  1  0.32173127  0.67826873  0.00000000  1
  Ag  Ag8  1  0.39759874  0.98320735  0.50000000  1
  Ag  Ag9  1  0.60240126  0.01679265  0.50000000  1
  Ag  Ag10  1  0.51679265  0.89759874  0.00000000  1
  Ag  Ag11  1  0.48320735  0.10240126  0.00000000  1
  Ag  Ag12  1  0.98320735  0.39759874  0.50000000  1
  Ag  Ag13  1  0.89759874  0.51679265  -0.00000000  1
  Ag  Ag14  1  0.10240126  0.48320735  -0.00000000  1
  Ag  Ag15  1  0.01679265  0.60240126  0.50000000  1
  Ag  Ag16  1  0.42022496  0.78777400  0.50000000  1
  Ag  Ag17  1  0.57977504  0.21222600  0.50000000  1
  Ag  Ag18  1  0.71222600  0.92022496  -0.00000000  1
  Ag  Ag19  1  0.28777400  0.07977504  -0.00000000  1
  Ag  Ag20  1  0.21222600  0.57977504  0.50000000  1
  Ag  Ag21  1  0.07977504  0.28777400  -0.00000000  1
  Ag  Ag22  1  0.92022496  0.71222600  -0.00000000  1
  Ag  Ag23  1  0.78777400  0.42022496  0.50000000  1
  Te  Te24  1  0.10136167  0.10136167  -0.00000000  1
  Te  Te25  1  0.60136167  0.39863833  0.50000000  1
  Te  Te26  1  0.39863833  0.60136167  0.50000000  1
  Te  Te27  1  0.89863833  0.89863833  0.00000000  1
  Te  Te28  1  0.32770546  0.88337578  -0.00000000  1
  Te  Te29  1  0.67229454  0.11662422  0.00000000  1
  Te  Te30  1  0.61662422  0.82770546  0.50000000  1
  Te  Te31  1  0.38337578  0.17229454  0.50000000  1
  Te  Te32  1  0.88337578  0.32770546  0.00000000  1
  Te  Te33  1  0.82770546  0.61662422  0.50000000  1
  Te  Te34  1  0.17229454  0.38337578  0.50000000  1
  Te  Te35  1  0.11662422  0.67229454  0.00000000  1
