# generated using pymatgen
data_HoVB4
_symmetry_space_group_name_H-M   'P 1'
_cell_length_a   3.42231473
_cell_length_b   5.98681846
_cell_length_c   11.58931921
_cell_angle_alpha   90.00000000
_cell_angle_beta   90.00000000
_cell_angle_gamma   90.00000000
_symmetry_Int_Tables_number   1
_chemical_formula_structural   HoVB4
_chemical_formula_sum   'Ho4 V4 B16'
_cell_volume   237.45097689
_cell_formula_units_Z   4
loop_
 _symmetry_equiv_pos_site_id
 _symmetry_equiv_pos_as_xyz
  1  'x, y, z'
loop_
 _atom_site_type_symbol
 _atom_site_label
 _atom_site_symmetry_multiplicity
 _atom_site_fract_x
 _atom_site_fract_y
 _atom_site_fract_z
 _atom_site_occupancy
  Ho  Ho0  1  0.50000000  0.12431769  0.65145279  1
  Ho  Ho1  1  0.50000000  0.87568231  0.34854721  1
  Ho  Ho2  1  0.50000000  0.62431769  0.84854721  1
  Ho  Ho3  1  0.50000000  0.37568231  0.15145279  1
  V  V4  1  0.50000000  0.12740001  0.91691927  1
  V  V5  1  0.50000000  0.87259999  0.08308073  1
  V  V6  1  0.50000000  0.62740001  0.58308073  1
  V  V7  1  0.50000000  0.37259999  0.41691927  1
  B  B8  1  0.00000000  0.47692576  0.69228137  1
  B  B9  1  -0.00000000  0.52307424  0.30771863  1
  B  B10  1  0.00000000  0.97692576  0.80771863  1
  B  B11  1  -0.00000000  0.02307424  0.19228137  1
  B  B12  1  0.00000000  0.28656777  0.81437788  1
  B  B13  1  -0.00000000  0.71343223  0.18562212  1
  B  B14  1  -0.00000000  0.78656777  0.68562212  1
  B  B15  1  -0.00000000  0.21343223  0.31437788  1
  B  B16  1  -0.00000000  0.36424567  0.96762116  1
  B  B17  1  0.00000000  0.63575433  0.03237884  1
  B  B18  1  -0.00000000  0.86424567  0.53237884  1
  B  B19  1  0.00000000  0.13575433  0.46762116  1
  B  B20  1  0.00000000  0.38499069  0.54761459  1
  B  B21  1  0.00000000  0.61500931  0.45238541  1
  B  B22  1  0.00000000  0.88499069  0.95238541  1
  B  B23  1  -0.00000000  0.11500931  0.04761459  1
