# generated using pymatgen
data_LaCoN3
_symmetry_space_group_name_H-M   'P 1'
_cell_length_a   4.04009520
_cell_length_b   5.72743363
_cell_length_c   7.44738527
_cell_angle_alpha   102.44374506
_cell_angle_beta   89.99999409
_cell_angle_gamma   110.65235679
_symmetry_Int_Tables_number   1
_chemical_formula_structural   LaCoN3
_chemical_formula_sum   'La2 Co2 N6'
_cell_volume   156.91990402
_cell_formula_units_Z   2
loop_
 _symmetry_equiv_pos_site_id
 _symmetry_equiv_pos_as_xyz
  1  'x, y, z'
loop_
 _atom_site_type_symbol
 _atom_site_label
 _atom_site_symmetry_multiplicity
 _atom_site_fract_x
 _atom_site_fract_y
 _atom_site_fract_z
 _atom_site_occupancy
  La  La0  1  0.83567964  0.67135927  0.20026893  1
  La  La1  1  0.16432036  0.32864073  0.79973107  1
  Co  Co2  1  0.54137063  0.08274125  0.15463876  1
  Co  Co3  1  0.45862937  0.91725875  0.84536124  1
  N  N4  1  0.36665029  0.73329958  0.02610955  1
  N  N5  1  0.63334971  0.26670042  0.97389045  1
  N  N6  1  0.60590416  0.21180932  0.38024142  1
  N  N7  1  0.35045209  0.70090319  0.45939122  1
  N  N8  1  0.39409584  0.78819068  0.61975858  1
  N  N9  1  0.64954791  0.29909681  0.54060878  1
