# generated using pymatgen
data_BaCu(SeO3)2
_symmetry_space_group_name_H-M   'P 1'
_cell_length_a   4.81716351
_cell_length_b   4.81712583
_cell_length_c   15.82681441
_cell_angle_alpha   89.08036385
_cell_angle_beta   89.07966167
_cell_angle_gamma   64.61392479
_symmetry_Int_Tables_number   1
_chemical_formula_structural   BaCu(SeO3)2
_chemical_formula_sum   'Ba2 Cu2 Se4 O12'
_cell_volume   331.73675373
_cell_formula_units_Z   2
loop_
 _symmetry_equiv_pos_site_id
 _symmetry_equiv_pos_as_xyz
  1  'x, y, z'
loop_
 _atom_site_type_symbol
 _atom_site_label
 _atom_site_symmetry_multiplicity
 _atom_site_fract_x
 _atom_site_fract_y
 _atom_site_fract_z
 _atom_site_occupancy
  Ba  Ba0  1  0.02592752  0.97408361  0.24999900  1
  Ba  Ba1  1  0.97407248  0.02591639  0.75000100  1
  Cu  Cu2  1  -0.00000000  -0.00000000  0.50000000  1
  Cu  Cu3  1  -0.00000000  -0.00000000  0.00000000  1
  Se  Se4  1  0.35403403  0.36305322  0.41079586  1
  Se  Se5  1  0.36304158  0.35401887  0.91080095  1
  Se  Se6  1  0.63695842  0.64598113  0.08919905  1
  Se  Se7  1  0.64596597  0.63694678  0.58920414  1
  O  O8  1  0.74773282  0.16360927  0.40355439  1
  O  O9  1  0.83638993  0.25229426  0.09644403  1
  O  O10  1  0.25226718  0.83639073  0.59644561  1
  O  O11  1  0.16361007  0.74770574  0.90355597  1
  O  O12  1  0.31588455  0.73503627  0.42148434  1
  O  O13  1  0.26496944  0.68412771  0.07851357  1
  O  O14  1  0.68411545  0.26496373  0.57851566  1
  O  O15  1  0.73503056  0.31587229  0.92148643  1
  O  O16  1  0.36214522  0.27060351  0.80798911  1
  O  O17  1  0.72936173  0.63784303  0.69201895  1
  O  O18  1  0.63785478  0.72939649  0.19201089  1
  O  O19  1  0.27063827  0.36215697  0.30798105  1
