# generated using pymatgen
data_Sm3Er
_symmetry_space_group_name_H-M   'P 1'
_cell_length_a   7.33801769
_cell_length_b   7.33802474
_cell_length_c   5.84689317
_cell_angle_alpha   90.00000000
_cell_angle_beta   90.00000000
_cell_angle_gamma   120.00003846
_symmetry_Int_Tables_number   1
_chemical_formula_structural   Sm3Er
_chemical_formula_sum   'Sm6 Er2'
_cell_volume   272.65505164
_cell_formula_units_Z   2
loop_
 _symmetry_equiv_pos_site_id
 _symmetry_equiv_pos_as_xyz
  1  'x, y, z'
loop_
 _atom_site_type_symbol
 _atom_site_label
 _atom_site_symmetry_multiplicity
 _atom_site_fract_x
 _atom_site_fract_y
 _atom_site_fract_z
 _atom_site_occupancy
  Sm  Sm0  1  0.16918150  0.33834932  0.25000000  1
  Sm  Sm1  1  0.66165081  0.83081908  0.25000000  1
  Sm  Sm2  1  0.16917221  0.83082904  0.25000000  1
  Sm  Sm3  1  0.83083730  0.66165735  0.75000000  1
  Sm  Sm4  1  0.33834083  0.16916263  0.75000000  1
  Sm  Sm5  1  0.83082677  0.16917510  0.75000000  1
  Er  Er6  1  0.33332928  0.66666976  0.75000000  1
  Er  Er7  1  0.66666332  0.33333473  0.25000000  1
