# generated using pymatgen
data_TaCuN2
_symmetry_space_group_name_H-M   'P 1'
_cell_length_a   3.15490411
_cell_length_b   3.15490411
_cell_length_c   5.35391337
_cell_angle_alpha   72.86433003
_cell_angle_beta   72.86433003
_cell_angle_gamma   59.99999761
_symmetry_Int_Tables_number   1
_chemical_formula_structural   TaCuN2
_chemical_formula_sum   'Ta1 Cu1 N2'
_cell_volume   43.39729448
_cell_formula_units_Z   1
loop_
 _symmetry_equiv_pos_site_id
 _symmetry_equiv_pos_as_xyz
  1  'x, y, z'
loop_
 _atom_site_type_symbol
 _atom_site_label
 _atom_site_symmetry_multiplicity
 _atom_site_fract_x
 _atom_site_fract_y
 _atom_site_fract_z
 _atom_site_occupancy
  Ta  Ta0  1  0.50000000  0.50000000  0.50000000  1
  Cu  Cu1  1  0.00000000  0.00000000  0.00000000  1
  N  N2  1  0.76175500  0.76175500  0.71473500  1
  N  N3  1  0.23824500  0.23824500  0.28526500  1
