# generated using pymatgen
data_MnAuO2
_symmetry_space_group_name_H-M   'P 1'
_cell_length_a   2.93118808
_cell_length_b   3.16295752
_cell_length_c   6.29022197
_cell_angle_alpha   101.55610069
_cell_angle_beta   90.00001528
_cell_angle_gamma   117.60427273
_symmetry_Int_Tables_number   1
_chemical_formula_structural   MnAuO2
_chemical_formula_sum   'Mn1 Au1 O2'
_cell_volume   50.34183983
_cell_formula_units_Z   1
loop_
 _symmetry_equiv_pos_site_id
 _symmetry_equiv_pos_as_xyz
  1  'x, y, z'
loop_
 _atom_site_type_symbol
 _atom_site_label
 _atom_site_symmetry_multiplicity
 _atom_site_fract_x
 _atom_site_fract_y
 _atom_site_fract_z
 _atom_site_occupancy
  Mn  Mn0  1  0.50000000  -0.00000000  0.50000000  1
  Au  Au1  1  0.00000000  -0.00000000  0.00000000  1
  O  O2  1  0.09918209  0.19836518  0.33566623  1
  O  O3  1  0.90081791  0.80163482  0.66433377  1
