# generated using pymatgen
data_CeGe5
_symmetry_space_group_name_H-M   'P 1'
_cell_length_a   6.15897993
_cell_length_b   6.15610610
_cell_length_c   6.15608984
_cell_angle_alpha   142.54043312
_cell_angle_beta   120.13007390
_cell_angle_gamma   72.72237464
_symmetry_Int_Tables_number   1
_chemical_formula_structural   CeGe5
_chemical_formula_sum   'Ce1 Ge5'
_cell_volume   120.47485402
_cell_formula_units_Z   1
loop_
 _symmetry_equiv_pos_site_id
 _symmetry_equiv_pos_as_xyz
  1  'x, y, z'
loop_
 _atom_site_type_symbol
 _atom_site_label
 _atom_site_symmetry_multiplicity
 _atom_site_fract_x
 _atom_site_fract_y
 _atom_site_fract_z
 _atom_site_occupancy
  Ce  Ce0  1  0.00000000  0.00000000  -0.00000000  1
  Ge  Ge1  1  0.12451738  0.32889291  0.79510950  1
  Ge  Ge2  1  0.53378183  0.32902181  0.20430967  1
  Ge  Ge3  1  0.46621717  0.67097819  0.79569133  1
  Ge  Ge4  1  0.87548262  0.67110809  0.20489050  1
  Ge  Ge5  1  0.50000000  0.99999900  0.49999900  1
