# generated using pymatgen
data_NdDy3
_symmetry_space_group_name_H-M   'P 1'
_cell_length_a   5.06544256
_cell_length_b   5.06330699
_cell_length_c   5.06414558
_cell_angle_alpha   90.03760265
_cell_angle_beta   89.99629215
_cell_angle_gamma   90.00229296
_symmetry_Int_Tables_number   1
_chemical_formula_structural   NdDy3
_chemical_formula_sum   'Nd1 Dy3'
_cell_volume   129.88462415
_cell_formula_units_Z   1
loop_
 _symmetry_equiv_pos_site_id
 _symmetry_equiv_pos_as_xyz
  1  'x, y, z'
loop_
 _atom_site_type_symbol
 _atom_site_label
 _atom_site_symmetry_multiplicity
 _atom_site_fract_x
 _atom_site_fract_y
 _atom_site_fract_z
 _atom_site_occupancy
  Nd  Nd0  1  0.99999850  0.00000280  0.00000569  1
  Dy  Dy1  1  0.00000217  0.50000150  0.49999864  1
  Dy  Dy2  1  0.50000151  0.49999976  0.00000564  1
  Dy  Dy3  1  0.50000182  0.99999894  0.49999303  1
