# generated using pymatgen
data_Rb2Bi2O5
_symmetry_space_group_name_H-M   'P 1'
_cell_length_a   8.82501453
_cell_length_b   4.33298858
_cell_length_c   4.33296243
_cell_angle_alpha   90.00000000
_cell_angle_beta   90.00000000
_cell_angle_gamma   90.00000000
_symmetry_Int_Tables_number   1
_chemical_formula_structural   Rb2Bi2O5
_chemical_formula_sum   'Rb2 Bi2 O5'
_cell_volume   165.68679491
_cell_formula_units_Z   1
loop_
 _symmetry_equiv_pos_site_id
 _symmetry_equiv_pos_as_xyz
  1  'x, y, z'
loop_
 _atom_site_type_symbol
 _atom_site_label
 _atom_site_symmetry_multiplicity
 _atom_site_fract_x
 _atom_site_fract_y
 _atom_site_fract_z
 _atom_site_occupancy
  Rb  Rb0  1  -0.00000000  -0.00000000  -0.00000000  1
  Rb  Rb1  1  0.50000100  -0.00000000  -0.00000000  1
  Bi  Bi2  1  0.26314555  0.49999900  0.49999900  1
  Bi  Bi3  1  0.73685445  0.49999900  0.49999900  1
  O  O4  1  0.23261154  0.49999900  -0.00000000  1
  O  O5  1  0.76738846  0.49999900  -0.00000000  1
  O  O6  1  0.50000100  0.49999900  0.49999900  1
  O  O7  1  0.23261154  0.00000000  0.49999900  1
  O  O8  1  0.76738846  -0.00000000  0.49999900  1
