# generated using pymatgen
data_Hf2MnRh
_symmetry_space_group_name_H-M   'P 1'
_cell_length_a   4.51489647
_cell_length_b   4.51489219
_cell_length_c   4.51489754
_cell_angle_alpha   60.00006279
_cell_angle_beta   60.00009434
_cell_angle_gamma   60.00000430
_symmetry_Int_Tables_number   1
_chemical_formula_structural   Hf2MnRh
_chemical_formula_sum   'Hf2 Mn1 Rh1'
_cell_volume   65.07716291
_cell_formula_units_Z   1
loop_
 _symmetry_equiv_pos_site_id
 _symmetry_equiv_pos_as_xyz
  1  'x, y, z'
loop_
 _atom_site_type_symbol
 _atom_site_label
 _atom_site_symmetry_multiplicity
 _atom_site_fract_x
 _atom_site_fract_y
 _atom_site_fract_z
 _atom_site_occupancy
  Hf  Hf0  1  0.00000009  0.00000002  -0.00000002  1
  Hf  Hf1  1  0.50000055  0.49999994  0.49999966  1
  Mn  Mn2  1  0.24999912  0.25000005  0.24999990  1
  Rh  Rh3  1  0.74999924  0.74999999  0.74999846  1
