# generated using pymatgen
data_PbAuO2
_symmetry_space_group_name_H-M   'P 1'
_cell_length_a   3.65328751
_cell_length_b   6.86904378
_cell_length_c   5.55961644
_cell_angle_alpha   92.29928148
_cell_angle_beta   91.08684653
_cell_angle_gamma   82.82389724
_symmetry_Int_Tables_number   1
_chemical_formula_structural   PbAuO2
_chemical_formula_sum   'Pb2 Au2 O4'
_cell_volume   138.29830763
_cell_formula_units_Z   2
loop_
 _symmetry_equiv_pos_site_id
 _symmetry_equiv_pos_as_xyz
  1  'x, y, z'
loop_
 _atom_site_type_symbol
 _atom_site_label
 _atom_site_symmetry_multiplicity
 _atom_site_fract_x
 _atom_site_fract_y
 _atom_site_fract_z
 _atom_site_occupancy
  Pb  Pb0  1  0.31751027  0.25908580  0.49875865  1
  Pb  Pb1  1  0.68248973  0.74091420  0.50124135  1
  Au  Au2  1  0.00000000  0.50000000  0.00000000  1
  Au  Au3  1  0.00000000  0.00000000  0.00000000  1
  O  O4  1  0.21846977  0.56346017  0.68732838  1
  O  O5  1  0.88170517  0.25133712  0.82317154  1
  O  O6  1  0.11829483  0.74866288  0.17682846  1
  O  O7  1  0.78153023  0.43653983  0.31267162  1
