# generated using pymatgen
data_BaZrSe3
_symmetry_space_group_name_H-M   'P 1'
_cell_length_a   4.06491020
_cell_length_b   9.14687945
_cell_length_c   15.11012795
_cell_angle_alpha   90.00000000
_cell_angle_beta   90.00000000
_cell_angle_gamma   90.00000000
_symmetry_Int_Tables_number   1
_chemical_formula_structural   BaZrSe3
_chemical_formula_sum   'Ba4 Zr4 Se12'
_cell_volume   561.81334775
_cell_formula_units_Z   4
loop_
 _symmetry_equiv_pos_site_id
 _symmetry_equiv_pos_as_xyz
  1  'x, y, z'
loop_
 _atom_site_type_symbol
 _atom_site_label
 _atom_site_symmetry_multiplicity
 _atom_site_fract_x
 _atom_site_fract_y
 _atom_site_fract_z
 _atom_site_occupancy
  Ba  Ba0  1  0.75000000  0.56660942  0.17443902  1
  Ba  Ba1  1  0.25000000  0.43339058  0.82556098  1
  Ba  Ba2  1  0.75000000  0.06660942  0.32556098  1
  Ba  Ba3  1  0.25000000  0.93339058  0.67443902  1
  Zr  Zr4  1  0.25000000  0.66377043  0.44073760  1
  Zr  Zr5  1  0.75000000  0.33622957  0.55926240  1
  Zr  Zr6  1  0.25000000  0.16377043  0.05926240  1
  Zr  Zr7  1  0.75000000  0.83622957  0.94073760  1
  Se  Se8  1  0.75000000  0.83075233  0.50491947  1
  Se  Se9  1  0.25000000  0.16924767  0.49508053  1
  Se  Se10  1  0.75000000  0.33075233  0.99508053  1
  Se  Se11  1  0.25000000  0.66924767  0.00491947  1
  Se  Se12  1  0.25000000  0.52376757  0.60463813  1
  Se  Se13  1  0.75000000  0.47623243  0.39536187  1
  Se  Se14  1  0.25000000  0.02376757  0.89536187  1
  Se  Se15  1  0.75000000  0.97623243  0.10463813  1
  Se  Se16  1  0.25000000  0.78577801  0.28701740  1
  Se  Se17  1  0.75000000  0.21422199  0.71298260  1
  Se  Se18  1  0.25000000  0.28577801  0.21298260  1
  Se  Se19  1  0.75000000  0.71422199  0.78701740  1
