# generated using pymatgen
data_PmHo3
_symmetry_space_group_name_H-M   'P 1'
_cell_length_a   7.30115360
_cell_length_b   7.30083665
_cell_length_c   5.61614354
_cell_angle_alpha   90.00000000
_cell_angle_beta   90.00000000
_cell_angle_gamma   119.99776397
_symmetry_Int_Tables_number   1
_chemical_formula_structural   PmHo3
_chemical_formula_sum   'Pm2 Ho6'
_cell_volume   259.26430782
_cell_formula_units_Z   2
loop_
 _symmetry_equiv_pos_site_id
 _symmetry_equiv_pos_as_xyz
  1  'x, y, z'
loop_
 _atom_site_type_symbol
 _atom_site_label
 _atom_site_symmetry_multiplicity
 _atom_site_fract_x
 _atom_site_fract_y
 _atom_site_fract_z
 _atom_site_occupancy
  Pm  Pm0  1  0.33338694  0.66671105  0.74999900  1
  Pm  Pm1  1  0.66661584  0.33329033  0.24999900  1
  Ho  Ho2  1  0.16520988  0.33046012  0.24999900  1
  Ho  Ho3  1  0.66953093  0.83476407  0.24999900  1
  Ho  Ho4  1  0.16515685  0.83475665  0.24999900  1
  Ho  Ho5  1  0.83478865  0.66953587  0.74999900  1
  Ho  Ho6  1  0.33046921  0.16523552  0.74999900  1
  Ho  Ho7  1  0.83483869  0.16524339  0.74999900  1
