# generated using pymatgen
data_Ag3AsS4
_symmetry_space_group_name_H-M   'P 1'
_cell_length_a   6.63335771
_cell_length_b   6.94631080
_cell_length_c   7.84198145
_cell_angle_alpha   90.00000000
_cell_angle_beta   90.00000000
_cell_angle_gamma   90.00000000
_symmetry_Int_Tables_number   1
_chemical_formula_structural   Ag3AsS4
_chemical_formula_sum   'Ag6 As2 S8'
_cell_volume   361.33783612
_cell_formula_units_Z   2
loop_
 _symmetry_equiv_pos_site_id
 _symmetry_equiv_pos_as_xyz
  1  'x, y, z'
loop_
 _atom_site_type_symbol
 _atom_site_label
 _atom_site_symmetry_multiplicity
 _atom_site_fract_x
 _atom_site_fract_y
 _atom_site_fract_z
 _atom_site_occupancy
  Ag  Ag0  1  0.98826830  0.14807323  0.50000000  1
  Ag  Ag1  1  0.01523347  0.68471967  0.76064654  1
  Ag  Ag2  1  0.51523347  0.31528033  0.73935346  1
  Ag  Ag3  1  0.48826830  0.85192677  -0.00000000  1
  Ag  Ag4  1  0.51523347  0.31528033  0.26064654  1
  Ag  Ag5  1  0.01523347  0.68471967  0.23935346  1
  As  As6  1  0.49720161  0.81818691  0.50000000  1
  As  As7  1  0.99720161  0.18181309  -0.00000000  1
  S  S8  1  0.39089516  0.66429869  0.27090718  1
  S  S9  1  0.89089516  0.33570131  0.22909282  1
  S  S10  1  0.89089516  0.33570131  0.77090718  1
  S  S11  1  0.39089516  0.66429869  0.72909282  1
  S  S12  1  0.32667259  0.18468738  -0.00000000  1
  S  S13  1  0.87350124  0.88912061  -0.00000000  1
  S  S14  1  0.82667259  0.81531262  0.50000000  1
  S  S15  1  0.37350124  0.11087939  0.50000000  1
