# generated using pymatgen
data_LaReN3
_symmetry_space_group_name_H-M   'P 1'
_cell_length_a   5.57726150
_cell_length_b   5.57726150
_cell_length_c   5.57726133
_cell_angle_alpha   60.28365003
_cell_angle_beta   60.28365003
_cell_angle_gamma   60.28363382
_symmetry_Int_Tables_number   1
_chemical_formula_structural   LaReN3
_chemical_formula_sum   'La2 Re2 N6'
_cell_volume   123.46020169
_cell_formula_units_Z   2
loop_
 _symmetry_equiv_pos_site_id
 _symmetry_equiv_pos_as_xyz
  1  'x, y, z'
loop_
 _atom_site_type_symbol
 _atom_site_label
 _atom_site_symmetry_multiplicity
 _atom_site_fract_x
 _atom_site_fract_y
 _atom_site_fract_z
 _atom_site_occupancy
  La  La0  1  0.75000000  0.75000000  0.75000000  1
  La  La1  1  0.25000000  0.25000000  0.25000000  1
  Re  Re2  1  0.00000000  0.00000000  -0.00000000  1
  Re  Re3  1  0.50000000  0.50000000  0.50000000  1
  N  N4  1  0.25000000  0.78852103  0.71147897  1
  N  N5  1  0.71147897  0.25000000  0.78852103  1
  N  N6  1  0.21147897  0.28852103  0.75000000  1
  N  N7  1  0.28852103  0.75000000  0.21147897  1
  N  N8  1  0.75000000  0.21147897  0.28852103  1
  N  N9  1  0.78852103  0.71147897  0.25000000  1
