# generated using pymatgen
data_MgInAg2
_symmetry_space_group_name_H-M   'P 1'
_cell_length_a   4.73434798
_cell_length_b   4.73434804
_cell_length_c   4.73434798
_cell_angle_alpha   59.99896087
_cell_angle_beta   59.99896206
_cell_angle_gamma   59.99896167
_symmetry_Int_Tables_number   1
_chemical_formula_structural   MgInAg2
_chemical_formula_sum   'Mg1 In1 Ag2'
_cell_volume   75.03351802
_cell_formula_units_Z   1
loop_
 _symmetry_equiv_pos_site_id
 _symmetry_equiv_pos_as_xyz
  1  'x, y, z'
loop_
 _atom_site_type_symbol
 _atom_site_label
 _atom_site_symmetry_multiplicity
 _atom_site_fract_x
 _atom_site_fract_y
 _atom_site_fract_z
 _atom_site_occupancy
  Mg  Mg0  1  0.74999907  0.74999903  0.74999901  1
  In  In1  1  0.25000083  0.25000085  0.25000085  1
  Ag  Ag2  1  0.50000084  0.50000087  0.50000087  1
  Ag  Ag3  1  0.00000026  0.00000025  0.00000026  1
