# generated using pymatgen
data_CaTcN3
_symmetry_space_group_name_H-M   'P 1'
_cell_length_a   3.63890631
_cell_length_b   6.36702344
_cell_length_c   6.43767375
_cell_angle_alpha   105.07113287
_cell_angle_beta   90.00000126
_cell_angle_gamma   106.60441057
_symmetry_Int_Tables_number   1
_chemical_formula_structural   CaTcN3
_chemical_formula_sum   'Ca2 Tc2 N6'
_cell_volume   137.57271785
_cell_formula_units_Z   2
loop_
 _symmetry_equiv_pos_site_id
 _symmetry_equiv_pos_as_xyz
  1  'x, y, z'
loop_
 _atom_site_type_symbol
 _atom_site_label
 _atom_site_symmetry_multiplicity
 _atom_site_fract_x
 _atom_site_fract_y
 _atom_site_fract_z
 _atom_site_occupancy
  Ca  Ca0  1  0.37993576  0.75987051  0.67239795  1
  Ca  Ca1  1  0.62006424  0.24012949  0.32760205  1
  Tc  Tc2  1  0.15475858  0.30951915  0.84954490  1
  Tc  Tc3  1  0.84524142  0.69048085  0.15045510  1
  N  N4  1  0.15631575  0.31263049  0.58122295  1
  N  N5  1  0.67964787  0.35929574  0.99113711  1
  N  N6  1  0.99809119  0.99618238  0.09857927  1
  N  N7  1  0.84368425  0.68736951  0.41877705  1
  N  N8  1  0.00190881  0.00381762  0.90142073  1
  N  N9  1  0.32035213  0.64070426  0.00886289  1
