# generated using pymatgen
data_ScAlCO
_symmetry_space_group_name_H-M   'P 1'
_cell_length_a   10.21459459
_cell_length_b   10.21459459
_cell_length_c   10.21459440
_cell_angle_alpha   18.44156491
_cell_angle_beta   18.44156491
_cell_angle_gamma   18.44156550
_symmetry_Int_Tables_number   1
_chemical_formula_structural   ScAlCO
_chemical_formula_sum   'Sc2 Al2 C2 O2'
_cell_volume   93.15954696
_cell_formula_units_Z   2
loop_
 _symmetry_equiv_pos_site_id
 _symmetry_equiv_pos_as_xyz
  1  'x, y, z'
loop_
 _atom_site_type_symbol
 _atom_site_label
 _atom_site_symmetry_multiplicity
 _atom_site_fract_x
 _atom_site_fract_y
 _atom_site_fract_z
 _atom_site_occupancy
  Sc  Sc0  1  0.00000000  0.00000000  0.00000000  1
  Sc  Sc1  1  0.50000000  0.50000000  0.50000000  1
  Al  Al2  1  0.73909867  0.73909867  0.73909867  1
  Al  Al3  1  0.26090133  0.26090133  0.26090133  1
  C  C4  1  0.61791129  0.61791129  0.61791129  1
  C  C5  1  0.38208871  0.38208871  0.38208871  1
  O  O6  1  0.19992960  0.19992960  0.19992960  1
  O  O7  1  0.80007040  0.80007040  0.80007040  1
