# generated using pymatgen
data_NdMnSi2
_symmetry_space_group_name_H-M   'P 1'
_cell_length_a   9.07565318
_cell_length_b   9.07565119
_cell_length_c   3.97475582
_cell_angle_alpha   89.99998330
_cell_angle_beta   90.00001759
_cell_angle_gamma   154.13191871
_symmetry_Int_Tables_number   1
_chemical_formula_structural   NdMnSi2
_chemical_formula_sum   'Nd2 Mn2 Si4'
_cell_volume   142.84069032
_cell_formula_units_Z   2
loop_
 _symmetry_equiv_pos_site_id
 _symmetry_equiv_pos_as_xyz
  1  'x, y, z'
loop_
 _atom_site_type_symbol
 _atom_site_label
 _atom_site_symmetry_multiplicity
 _atom_site_fract_x
 _atom_site_fract_y
 _atom_site_fract_z
 _atom_site_occupancy
  Nd  Nd0  1  0.10067751  0.89932230  0.24999992  1
  Nd  Nd1  1  0.89932940  0.10067054  0.75000007  1
  Mn  Mn2  1  0.24984431  0.75015559  0.75000018  1
  Mn  Mn3  1  0.75014682  0.24985260  0.24999978  1
  Si  Si4  1  0.32388586  0.67611411  0.24999997  1
  Si  Si5  1  0.67610624  0.32389397  0.75000006  1
  Si  Si6  1  0.53604477  0.46395515  0.75000000  1
  Si  Si7  1  0.46396409  0.53603574  0.25000001  1
