# generated using pymatgen
data_Tl5Te3
_symmetry_space_group_name_H-M   'P 1'
_cell_length_a   9.05152254
_cell_length_b   9.05152264
_cell_length_c   9.07135085
_cell_angle_alpha   119.92772922
_cell_angle_beta   119.92772770
_cell_angle_gamma   89.99999475
_symmetry_Int_Tables_number   1
_chemical_formula_structural   Tl5Te3
_chemical_formula_sum   'Tl10 Te6'
_cell_volume   526.67941252
_cell_formula_units_Z   2
loop_
 _symmetry_equiv_pos_site_id
 _symmetry_equiv_pos_as_xyz
  1  'x, y, z'
loop_
 _atom_site_type_symbol
 _atom_site_label
 _atom_site_symmetry_multiplicity
 _atom_site_fract_x
 _atom_site_fract_y
 _atom_site_fract_z
 _atom_site_occupancy
  Tl  Tl0  1  0.19439521  0.99060911  0.68500433  1
  Tl  Tl1  1  0.80560479  0.00939089  0.31499567  1
  Tl  Tl2  1  0.00000000  -0.00000000  -0.00000000  1
  Tl  Tl3  1  0.50000000  0.50000000  -0.00000000  1
  Tl  Tl4  1  0.49060911  0.69439521  0.68500433  1
  Tl  Tl5  1  0.99060911  0.49060911  0.68500433  1
  Tl  Tl6  1  0.69439521  0.19439521  0.68500433  1
  Tl  Tl7  1  0.30560479  0.80560479  0.31499567  1
  Tl  Tl8  1  0.00939089  0.50939089  0.31499567  1
  Tl  Tl9  1  0.50939089  0.30560479  0.31499567  1
  Te  Te10  1  0.15897112  0.34102888  0.00000000  1
  Te  Te11  1  0.65897112  0.15897112  -0.00000000  1
  Te  Te12  1  0.34102888  0.84102888  0.00000000  1
  Te  Te13  1  0.84102888  0.65897112  -0.00000000  1
  Te  Te14  1  0.75000000  0.75000000  0.50000000  1
  Te  Te15  1  0.25000000  0.25000000  0.50000000  1
