# generated using pymatgen
data_SnBi
_symmetry_space_group_name_H-M   'P 1'
_cell_length_a   4.65390910
_cell_length_b   4.65390910
_cell_length_c   4.65390910
_cell_angle_alpha   97.07368635
_cell_angle_beta   97.07368635
_cell_angle_gamma   138.91265323
_symmetry_Int_Tables_number   1
_chemical_formula_structural   SnBi
_chemical_formula_sum   'Sn1 Bi1'
_cell_volume   62.03271346
_cell_formula_units_Z   1
loop_
 _symmetry_equiv_pos_site_id
 _symmetry_equiv_pos_as_xyz
  1  'x, y, z'
loop_
 _atom_site_type_symbol
 _atom_site_label
 _atom_site_symmetry_multiplicity
 _atom_site_fract_x
 _atom_site_fract_y
 _atom_site_fract_z
 _atom_site_occupancy
  Sn  Sn0  1  -0.00000000  -0.00000000  -0.00000000  1
  Bi  Bi1  1  0.75000000  0.25000000  0.50000000  1
