# generated using pymatgen
data_Si
_symmetry_space_group_name_H-M   'P 1'
_cell_length_a   3.84477132
_cell_length_b   5.08062223
_cell_length_c   5.08062223
_cell_angle_alpha   81.76877790
_cell_angle_beta   67.76688585
_cell_angle_gamma   67.76688585
_symmetry_Int_Tables_number   1
_chemical_formula_structural   Si
_chemical_formula_sum   Si4
_cell_volume   85.03542034
_cell_formula_units_Z   4
loop_
 _symmetry_equiv_pos_site_id
 _symmetry_equiv_pos_as_xyz
  1  'x, y, z'
loop_
 _atom_site_type_symbol
 _atom_site_label
 _atom_site_symmetry_multiplicity
 _atom_site_fract_x
 _atom_site_fract_y
 _atom_site_fract_z
 _atom_site_occupancy
  Si  Si0  1  0.17880106  0.64239788  0.00000000  1
  Si  Si1  1  0.82119894  0.35760212  -0.00000000  1
  Si  Si2  1  0.82119894  -0.00000000  0.35760212  1
  Si  Si3  1  0.17880106  -0.00000000  0.64239788  1
