# generated using pymatgen
data_Hg
_symmetry_space_group_name_H-M   'P 1'
_cell_length_a   4.12068606
_cell_length_b   4.12068719
_cell_length_c   4.46795255
_cell_angle_alpha   117.22632439
_cell_angle_beta   117.22632788
_cell_angle_gamma   59.53541448
_symmetry_Int_Tables_number   1
_chemical_formula_structural   Hg
_chemical_formula_sum   Hg2
_cell_volume   55.57240581
_cell_formula_units_Z   2
loop_
 _symmetry_equiv_pos_site_id
 _symmetry_equiv_pos_as_xyz
  1  'x, y, z'
loop_
 _atom_site_type_symbol
 _atom_site_label
 _atom_site_symmetry_multiplicity
 _atom_site_fract_x
 _atom_site_fract_y
 _atom_site_fract_z
 _atom_site_occupancy
  Hg  Hg0  1  0.74999076  0.74999076  0.24997367  1
  Hg  Hg1  1  0.25000924  0.25000924  0.75002733  1
