# generated using pymatgen
data_Ta
_symmetry_space_group_name_H-M   'P 1'
_cell_length_a   2.37728010
_cell_length_b   22.71001644
_cell_length_c   22.70820509
_cell_angle_alpha   90.00265627
_cell_angle_beta   90.00000000
_cell_angle_gamma   90.00000000
_symmetry_Int_Tables_number   1
_chemical_formula_structural   Ta
_chemical_formula_sum   Ta4
_cell_volume   1225.97216772
_cell_formula_units_Z   4
loop_
 _symmetry_equiv_pos_site_id
 _symmetry_equiv_pos_as_xyz
  1  'x, y, z'
loop_
 _atom_site_type_symbol
 _atom_site_label
 _atom_site_symmetry_multiplicity
 _atom_site_fract_x
 _atom_site_fract_y
 _atom_site_fract_z
 _atom_site_occupancy
  Ta  Ta0  1  -0.00000000  0.81863140  0.31862571  1
  Ta  Ta1  1  -0.00000000  0.18137499  0.68136826  1
  Ta  Ta2  1  -0.00000000  0.68136193  0.81863738  1
  Ta  Ta3  1  0.00000000  0.31863167  0.18136865  1
