# generated using pymatgen
data_H2
_symmetry_space_group_name_H-M   'P 1'
_cell_length_a   7.93627460
_cell_length_b   9.00177314
_cell_length_c   10.74416127
_cell_angle_alpha   90.00000000
_cell_angle_beta   90.00000000
_cell_angle_gamma   102.09298005
_symmetry_Int_Tables_number   1
_chemical_formula_structural   H2
_chemical_formula_sum   H32
_cell_volume   750.53553534
_cell_formula_units_Z   16
loop_
 _symmetry_equiv_pos_site_id
 _symmetry_equiv_pos_as_xyz
  1  'x, y, z'
loop_
 _atom_site_type_symbol
 _atom_site_label
 _atom_site_symmetry_multiplicity
 _atom_site_fract_x
 _atom_site_fract_y
 _atom_site_fract_z
 _atom_site_occupancy
  H  H0  1  0.98395763  0.18644227  0.25311467  1
  H  H1  1  0.01604237  0.81355773  0.75311467  1
  H  H2  1  0.48195200  0.15455156  0.74577533  1
  H  H3  1  0.51804800  0.84544844  0.24577533  1
  H  H4  1  0.00454666  0.17440257  0.18706117  1
  H  H5  1  0.99545334  0.82559743  0.68706117  1
  H  H6  1  0.45815364  0.12338636  0.68283560  1
  H  H7  1  0.54184636  0.87661364  0.18283560  1
  H  H8  1  0.44914252  0.10535005  0.00803402  1
  H  H9  1  0.55085748  0.89464995  0.50803402  1
  H  H10  1  0.03764507  0.12190922  0.52803734  1
  H  H11  1  0.96235493  0.87809078  0.02803734  1
  H  H12  1  0.50142960  0.17072042  0.04207195  1
  H  H13  1  0.49857040  0.82927958  0.54207195  1
  H  H14  1  0.96289626  0.15248313  0.54962471  1
  H  H15  1  0.03710374  0.84751687  0.04962471  1
  H  H16  1  0.13357806  0.15936629  0.86030524  1
  H  H17  1  0.86642194  0.84063371  0.36030524  1
  H  H18  1  0.33047034  0.15381379  0.33305478  1
  H  H19  1  0.66952966  0.84618621  0.83305478  1
  H  H20  1  0.09010215  0.22376345  0.85076429  1
  H  H21  1  0.90989785  0.77623655  0.35076429  1
  H  H22  1  0.41589821  0.17708062  0.36331692  1
  H  H23  1  0.58410179  0.82291938  0.86331692  1
  H  H24  1  0.31134124  0.59898369  0.05466792  1
  H  H25  1  0.68865876  0.40101631  0.55466792  1
  H  H26  1  0.16082641  0.57049351  0.55064688  1
  H  H27  1  0.83917359  0.42950649  0.05064688  1
  H  H28  1  0.32186686  0.58224721  0.98792899  1
  H  H29  1  0.67813314  0.41775279  0.48792899  1
  H  H30  1  0.14730530  0.59670712  0.48676319  1
  H  H31  1  0.85269470  0.40329288  0.98676319  1
