# generated using pymatgen
data_Tb3Ni2
_symmetry_space_group_name_H-M   'P 1'
_cell_length_a   6.86537521
_cell_length_b   6.86537521
_cell_length_c   9.57457163
_cell_angle_alpha   75.46149604
_cell_angle_beta   75.46149604
_cell_angle_gamma   30.92541884
_symmetry_Int_Tables_number   1
_chemical_formula_structural   Tb3Ni2
_chemical_formula_sum   'Tb6 Ni4'
_cell_volume   223.91883011
_cell_formula_units_Z   2
loop_
 _symmetry_equiv_pos_site_id
 _symmetry_equiv_pos_as_xyz
  1  'x, y, z'
loop_
 _atom_site_type_symbol
 _atom_site_label
 _atom_site_symmetry_multiplicity
 _atom_site_fract_x
 _atom_site_fract_y
 _atom_site_fract_z
 _atom_site_occupancy
  Tb  Tb0  1  0.13116627  0.13116627  0.00124958  1
  Tb  Tb1  1  0.86883373  0.86883373  0.99875042  1
  Tb  Tb2  1  0.40264205  0.40264205  0.67492180  1
  Tb  Tb3  1  0.59735795  0.59735795  0.32507820  1
  Tb  Tb4  1  0.14478912  0.14478912  0.63547416  1
  Tb  Tb5  1  0.85521088  0.85521088  0.36452584  1
  Ni  Ni6  1  0.53490718  0.53490718  0.85692641  1
  Ni  Ni7  1  0.46509282  0.46509282  0.14307359  1
  Ni  Ni8  1  0.74294061  0.74294061  0.77617176  1
  Ni  Ni9  1  0.25705939  0.25705939  0.22382824  1
