# generated using pymatgen
data_Bi2Ir
_symmetry_space_group_name_H-M   'P 1'
_cell_length_a   6.84486957
_cell_length_b   6.93654749
_cell_length_c   7.02156507
_cell_angle_alpha   115.60733467
_cell_angle_beta   90.00000000
_cell_angle_gamma   90.00000000
_symmetry_Int_Tables_number   1
_chemical_formula_structural   Bi2Ir
_chemical_formula_sum   'Bi8 Ir4'
_cell_volume   300.63650885
_cell_formula_units_Z   4
loop_
 _symmetry_equiv_pos_site_id
 _symmetry_equiv_pos_as_xyz
  1  'x, y, z'
loop_
 _atom_site_type_symbol
 _atom_site_label
 _atom_site_symmetry_multiplicity
 _atom_site_fract_x
 _atom_site_fract_y
 _atom_site_fract_z
 _atom_site_occupancy
  Bi  Bi0  1  0.86021709  0.65329009  0.32576242  1
  Bi  Bi1  1  0.36021709  0.34670991  0.17423758  1
  Bi  Bi2  1  0.13978291  0.34670991  0.67423758  1
  Bi  Bi3  1  0.63978291  0.65329009  0.82576242  1
  Bi  Bi4  1  0.13855763  0.85418609  0.12160846  1
  Bi  Bi5  1  0.63855763  0.14581391  0.37839154  1
  Bi  Bi6  1  0.86144237  0.14581391  0.87839154  1
  Bi  Bi7  1  0.36144237  0.85418609  0.62160846  1
  Ir  Ir8  1  0.49881031  0.72873432  0.21099381  1
  Ir  Ir9  1  0.99881031  0.27126568  0.28900619  1
  Ir  Ir10  1  0.50118969  0.27126568  0.78900619  1
  Ir  Ir11  1  0.00118969  0.72873432  0.71099381  1
