# generated using pymatgen
data_YAu2
_symmetry_space_group_name_H-M   'P 1'
_cell_length_a   3.72281635
_cell_length_b   3.72281635
_cell_length_c   5.22485655
_cell_angle_alpha   110.82867087
_cell_angle_beta   110.82867087
_cell_angle_gamma   90.04373942
_symmetry_Int_Tables_number   1
_chemical_formula_structural   YAu2
_chemical_formula_sum   'Y1 Au2'
_cell_volume   62.58357225
_cell_formula_units_Z   1
loop_
 _symmetry_equiv_pos_site_id
 _symmetry_equiv_pos_as_xyz
  1  'x, y, z'
loop_
 _atom_site_type_symbol
 _atom_site_label
 _atom_site_symmetry_multiplicity
 _atom_site_fract_x
 _atom_site_fract_y
 _atom_site_fract_z
 _atom_site_occupancy
  Y  Y0  1  -0.00000000  -0.00000000  0.00000000  1
  Au  Au1  1  0.66502456  0.66502456  0.33029345  1
  Au  Au2  1  0.33497544  0.33497544  0.66970655  1
