# generated using pymatgen
data_ThF4
_symmetry_space_group_name_H-M   'P 1'
_cell_length_a   8.56344841
_cell_length_b   8.56382093
_cell_length_c   8.56382178
_cell_angle_alpha   80.37792732
_cell_angle_beta   63.06277957
_cell_angle_gamma   63.06278477
_symmetry_Int_Tables_number   1
_chemical_formula_structural   ThF4
_chemical_formula_sum   'Th6 F24'
_cell_volume   498.57564794
_cell_formula_units_Z   6
loop_
 _symmetry_equiv_pos_site_id
 _symmetry_equiv_pos_as_xyz
  1  'x, y, z'
loop_
 _atom_site_type_symbol
 _atom_site_label
 _atom_site_symmetry_multiplicity
 _atom_site_fract_x
 _atom_site_fract_y
 _atom_site_fract_z
 _atom_site_occupancy
  Th  Th0  1  0.25000000  0.21283124  0.78716876  1
  Th  Th1  1  0.75000000  0.78716876  0.21283124  1
  Th  Th2  1  0.16979348  0.77586215  0.63211227  1
  Th  Th3  1  0.33020652  0.36788773  0.22413785  1
  Th  Th4  1  0.83020652  0.22413785  0.36788773  1
  Th  Th5  1  0.66979348  0.63211227  0.77586215  1
  F  F6  1  0.39766432  0.68118293  0.73976952  1
  F  F7  1  0.10233568  0.26023048  0.31881707  1
  F  F8  1  0.60233568  0.31881707  0.26023048  1
  F  F9  1  0.89766432  0.73976952  0.68118293  1
  F  F10  1  0.56756632  0.18677069  0.59821228  1
  F  F11  1  0.93243368  0.40178772  0.81322931  1
  F  F12  1  0.75000000  0.39656798  0.60343202  1
  F  F13  1  0.25000000  0.60343202  0.39656798  1
  F  F14  1  0.71938778  0.73780870  0.49735125  1
  F  F15  1  0.78061222  0.50264875  0.26219130  1
  F  F16  1  0.28061122  0.26219130  0.50264875  1
  F  F17  1  0.21938878  0.49735125  0.73780870  1
  F  F18  1  0.84480052  0.97343293  0.27767805  1
  F  F19  1  0.65519948  0.72232195  0.02656707  1
  F  F20  1  0.15519948  0.02656707  0.72232195  1
  F  F21  1  0.34480052  0.27767805  0.97343293  1
  F  F22  1  0.00000000  -0.00000000  0.50000000  1
  F  F23  1  0.50000000  0.50000000  0.00000000  1
  F  F24  1  0.95791701  0.82470703  0.93270778  1
  F  F25  1  0.54208299  0.06729222  0.17529297  1
  F  F26  1  0.04208299  0.17529297  0.06729222  1
  F  F27  1  0.45791701  0.93270778  0.82470703  1
  F  F28  1  0.06756632  0.59821228  0.18677069  1
  F  F29  1  0.43243368  0.81322931  0.40178772  1
