# generated using pymatgen
data_Si
_symmetry_space_group_name_H-M   'P 1'
_cell_length_a   3.84593083
_cell_length_b   6.33300792
_cell_length_c   7.17668911
_cell_angle_alpha   96.52403067
_cell_angle_beta   105.54208898
_cell_angle_gamma   90.00000000
_symmetry_Int_Tables_number   1
_chemical_formula_structural   Si
_chemical_formula_sum   Si8
_cell_volume   167.23079840
_cell_formula_units_Z   8
loop_
 _symmetry_equiv_pos_site_id
 _symmetry_equiv_pos_as_xyz
  1  'x, y, z'
loop_
 _atom_site_type_symbol
 _atom_site_label
 _atom_site_symmetry_multiplicity
 _atom_site_fract_x
 _atom_site_fract_y
 _atom_site_fract_z
 _atom_site_occupancy
  Si  Si0  1  0.05552936  0.87396351  0.11105773  1
  Si  Si1  1  0.94447064  0.12603649  0.88894227  1
  Si  Si2  1  0.55899985  0.65339544  0.11799771  1
  Si  Si3  1  0.44100015  0.34660456  0.88200229  1
  Si  Si4  1  0.21274317  0.05730781  0.42548434  1
  Si  Si5  1  0.78725683  0.94269219  0.57451566  1
  Si  Si6  1  0.72710984  0.58557765  0.45421767  1
  Si  Si7  1  0.27289016  0.41442235  0.54578233  1
