# generated using pymatgen
data_Th2Zn17
_symmetry_space_group_name_H-M   'P 1'
_cell_length_a   6.76804965
_cell_length_b   6.76804806
_cell_length_c   6.76804876
_cell_angle_alpha   82.87865740
_cell_angle_beta   82.87867511
_cell_angle_gamma   82.87865593
_symmetry_Int_Tables_number   1
_chemical_formula_structural   Th2Zn17
_chemical_formula_sum   'Th2 Zn17'
_cell_volume   303.39340094
_cell_formula_units_Z   1
loop_
 _symmetry_equiv_pos_site_id
 _symmetry_equiv_pos_as_xyz
  1  'x, y, z'
loop_
 _atom_site_type_symbol
 _atom_site_label
 _atom_site_symmetry_multiplicity
 _atom_site_fract_x
 _atom_site_fract_y
 _atom_site_fract_z
 _atom_site_occupancy
  Th  Th0  1  0.33763068  0.33763068  0.33763068  1
  Th  Th1  1  0.66236932  0.66236932  0.66236932  1
  Zn  Zn2  1  -0.00000000  -0.00000000  0.50000000  1
  Zn  Zn3  1  0.50000000  -0.00000000  0.00000000  1
  Zn  Zn4  1  -0.00000000  0.50000000  0.00000000  1
  Zn  Zn5  1  0.29105557  0.70894443  0.00000000  1
  Zn  Zn6  1  -0.00000000  0.29105557  0.70894443  1
  Zn  Zn7  1  0.70894443  0.00000000  0.29105557  1
  Zn  Zn8  1  0.70894443  0.29105557  -0.00000000  1
  Zn  Zn9  1  0.00000000  0.70894443  0.29105557  1
  Zn  Zn10  1  0.29105557  -0.00000000  0.70894443  1
  Zn  Zn11  1  0.65023224  0.16057763  0.65023224  1
  Zn  Zn12  1  0.65023224  0.65023224  0.16057763  1
  Zn  Zn13  1  0.16057763  0.65023224  0.65023224  1
  Zn  Zn14  1  0.83942237  0.34976776  0.34976776  1
  Zn  Zn15  1  0.34976776  0.83942237  0.34976776  1
  Zn  Zn16  1  0.34976776  0.34976776  0.83942237  1
  Zn  Zn17  1  0.09881686  0.09881686  0.09881686  1
  Zn  Zn18  1  0.90118314  0.90118314  0.90118314  1
