# generated using pymatgen
data_H2O
_symmetry_space_group_name_H-M   'P 1'
_cell_length_a   7.47772135
_cell_length_b   7.47772100
_cell_length_c   7.47772134
_cell_angle_alpha   113.00651116
_cell_angle_beta   113.00651530
_cell_angle_gamma   113.00651865
_symmetry_Int_Tables_number   1
_chemical_formula_structural   H2O
_chemical_formula_sum   'H24 O12'
_cell_volume   271.73075532
_cell_formula_units_Z   12
loop_
 _symmetry_equiv_pos_site_id
 _symmetry_equiv_pos_as_xyz
  1  'x, y, z'
loop_
 _atom_site_type_symbol
 _atom_site_label
 _atom_site_symmetry_multiplicity
 _atom_site_fract_x
 _atom_site_fract_y
 _atom_site_fract_z
 _atom_site_occupancy
  H  H0  1  0.80436028  0.63461221  0.25710715  1
  H  H1  1  0.63461221  0.25710715  0.80436028  1
  H  H2  1  0.25710715  0.80436028  0.63461221  1
  H  H3  1  0.19563972  0.36538779  0.74289285  1
  H  H4  1  0.36538779  0.74289285  0.19563972  1
  H  H5  1  0.74289285  0.19563972  0.36538779  1
  H  H6  1  0.58722248  0.59657944  0.27025633  1
  H  H7  1  0.59657944  0.27025633  0.58722248  1
  H  H8  1  0.27025633  0.58722248  0.59657944  1
  H  H9  1  0.41277752  0.40342056  0.72974367  1
  H  H10  1  0.40342056  0.72974367  0.41277752  1
  H  H11  1  0.72974367  0.41277752  0.40342056  1
  H  H12  1  0.14111237  0.04392201  0.79162552  1
  H  H13  1  0.79162552  0.14111237  0.04392201  1
  H  H14  1  0.04392201  0.79162552  0.14111237  1
  H  H15  1  0.85888763  0.95607799  0.20837448  1
  H  H16  1  0.20837448  0.85888763  0.95607799  1
  H  H17  1  0.95607799  0.20837448  0.85888763  1
  H  H18  1  0.43156534  0.20464125  0.99209201  1
  H  H19  1  0.99209201  0.43156534  0.20464125  1
  H  H20  1  0.20464125  0.99209201  0.43156534  1
  H  H21  1  0.56843466  0.79535875  0.00790799  1
  H  H22  1  0.00790799  0.56843466  0.79535875  1
  H  H23  1  0.79535875  0.00790799  0.56843466  1
  O  O24  1  0.25019156  0.67042708  0.52366253  1
  O  O25  1  0.67042708  0.52366253  0.25019156  1
  O  O26  1  0.52366253  0.25019156  0.67042708  1
  O  O27  1  0.74980844  0.32957292  0.47633747  1
  O  O28  1  0.32957292  0.47633747  0.74980844  1
  O  O29  1  0.47633747  0.74980844  0.32957292  1
  O  O30  1  0.97277254  0.14338443  0.72779842  1
  O  O31  1  0.14338443  0.72779842  0.97277254  1
  O  O32  1  0.72779842  0.97277254  0.14338443  1
  O  O33  1  0.02722746  0.85661557  0.27220158  1
  O  O34  1  0.85661557  0.27220158  0.02722746  1
  O  O35  1  0.27220158  0.02722746  0.85661557  1
