# generated using pymatgen
data_PdF2
_symmetry_space_group_name_H-M   'P 1'
_cell_length_a   3.42817199
_cell_length_b   4.97598395
_cell_length_c   4.97598395
_cell_angle_alpha   90.00050963
_cell_angle_beta   90.00000000
_cell_angle_gamma   90.00000000
_symmetry_Int_Tables_number   1
_chemical_formula_structural   PdF2
_chemical_formula_sum   'Pd2 F4'
_cell_volume   84.88296552
_cell_formula_units_Z   2
loop_
 _symmetry_equiv_pos_site_id
 _symmetry_equiv_pos_as_xyz
  1  'x, y, z'
loop_
 _atom_site_type_symbol
 _atom_site_label
 _atom_site_symmetry_multiplicity
 _atom_site_fract_x
 _atom_site_fract_y
 _atom_site_fract_z
 _atom_site_occupancy
  Pd  Pd0  1  0.50000000  0.50000000  0.50000000  1
  Pd  Pd1  1  0.00000000  -0.00000000  0.00000000  1
  F  F2  1  0.00000000  0.69252266  0.69252266  1
  F  F3  1  0.50000000  0.80747781  0.19252219  1
  F  F4  1  0.00000000  0.30747734  0.30747734  1
  F  F5  1  0.50000000  0.19252219  0.80747781  1
