# generated using pymatgen
data_Ti3Ni4
_symmetry_space_group_name_H-M   'P 1'
_cell_length_a   6.65670246
_cell_length_b   6.65670394
_cell_length_c   6.65670356
_cell_angle_alpha   113.92230740
_cell_angle_beta   113.92231621
_cell_angle_gamma   113.92231063
_symmetry_Int_Tables_number   1
_chemical_formula_structural   Ti3Ni4
_chemical_formula_sum   'Ti6 Ni8'
_cell_volume   180.23709626
_cell_formula_units_Z   2
loop_
 _symmetry_equiv_pos_site_id
 _symmetry_equiv_pos_as_xyz
  1  'x, y, z'
loop_
 _atom_site_type_symbol
 _atom_site_label
 _atom_site_symmetry_multiplicity
 _atom_site_fract_x
 _atom_site_fract_y
 _atom_site_fract_z
 _atom_site_occupancy
  Ti  Ti0  1  0.49797352  0.89409935  0.76043256  1
  Ti  Ti1  1  0.23956744  0.50202648  0.10590065  1
  Ti  Ti2  1  0.50202648  0.10590065  0.23956744  1
  Ti  Ti3  1  0.10590065  0.23956744  0.50202648  1
  Ti  Ti4  1  0.89409935  0.76043256  0.49797352  1
  Ti  Ti5  1  0.76043256  0.49797352  0.89409935  1
  Ni  Ni6  1  0.58135014  0.74086847  0.05836492  1
  Ni  Ni7  1  0.41864986  0.25913153  0.94163508  1
  Ni  Ni8  1  0.74086847  0.05836492  0.58135014  1
  Ni  Ni9  1  0.05836492  0.58135014  0.74086847  1
  Ni  Ni10  1  0.25913153  0.94163508  0.41864986  1
  Ni  Ni11  1  0.00000000  0.00000000  0.00000000  1
  Ni  Ni12  1  0.94163508  0.41864986  0.25913153  1
  Ni  Ni13  1  0.50000000  0.50000000  0.50000000  1
