# generated using pymatgen
data_Te
_symmetry_space_group_name_H-M   'P 1'
_cell_length_a   3.07030578
_cell_length_b   5.11158862
_cell_length_c   5.11158772
_cell_angle_alpha   70.71049550
_cell_angle_beta   72.52269838
_cell_angle_gamma   72.52270331
_symmetry_Int_Tables_number   1
_chemical_formula_structural   Te
_chemical_formula_sum   Te2
_cell_volume   70.39780168
_cell_formula_units_Z   2
loop_
 _symmetry_equiv_pos_site_id
 _symmetry_equiv_pos_as_xyz
  1  'x, y, z'
loop_
 _atom_site_type_symbol
 _atom_site_label
 _atom_site_symmetry_multiplicity
 _atom_site_fract_x
 _atom_site_fract_y
 _atom_site_fract_z
 _atom_site_occupancy
  Te  Te0  1  0.50092902  0.25000000  0.25000000  1
  Te  Te1  1  0.49907098  0.75000000  0.75000000  1
