# generated using pymatgen
data_Ba
_symmetry_space_group_name_H-M   'P 1'
_cell_length_a   7.67354129
_cell_length_b   6.98958920
_cell_length_c   6.98958891
_cell_angle_alpha   72.46307841
_cell_angle_beta   56.70659431
_cell_angle_gamma   56.70659536
_symmetry_Int_Tables_number   1
_chemical_formula_structural   Ba
_chemical_formula_sum   Ba4
_cell_volume   261.92512928
_cell_formula_units_Z   4
loop_
 _symmetry_equiv_pos_site_id
 _symmetry_equiv_pos_as_xyz
  1  'x, y, z'
loop_
 _atom_site_type_symbol
 _atom_site_label
 _atom_site_symmetry_multiplicity
 _atom_site_fract_x
 _atom_site_fract_y
 _atom_site_fract_z
 _atom_site_occupancy
  Ba  Ba0  1  0.18185688  0.50000000  0.13628523  1
  Ba  Ba1  1  0.81814312  0.50000000  0.86371477  1
  Ba  Ba2  1  0.68185688  0.13628523  0.50000000  1
  Ba  Ba3  1  0.31814312  0.86371477  0.50000000  1
