# generated using pymatgen
data_Hg
_symmetry_space_group_name_H-M   'P 1'
_cell_length_a   3.38924482
_cell_length_b   5.51844013
_cell_length_c   6.38959322
_cell_angle_alpha   64.41622721
_cell_angle_beta   90.00000000
_cell_angle_gamma   90.00000000
_symmetry_Int_Tables_number   1
_chemical_formula_structural   Hg
_chemical_formula_sum   Hg4
_cell_volume   107.78970719
_cell_formula_units_Z   4
loop_
 _symmetry_equiv_pos_site_id
 _symmetry_equiv_pos_as_xyz
  1  'x, y, z'
loop_
 _atom_site_type_symbol
 _atom_site_label
 _atom_site_symmetry_multiplicity
 _atom_site_fract_x
 _atom_site_fract_y
 _atom_site_fract_z
 _atom_site_occupancy
  Hg  Hg0  1  0.50074971  0.86916404  0.26166892  1
  Hg  Hg1  1  0.99924929  0.36916404  0.26166892  1
  Hg  Hg2  1  0.00074771  0.63083496  0.73832908  1
  Hg  Hg3  1  0.49925029  0.13083496  0.73832908  1
