# generated using pymatgen
data_ThGa2
_symmetry_space_group_name_H-M   'P 1'
_cell_length_a   4.26397675
_cell_length_b   4.26397606
_cell_length_c   7.91515585
_cell_angle_alpha   105.62593215
_cell_angle_beta   105.62592490
_cell_angle_gamma   89.99998570
_symmetry_Int_Tables_number   1
_chemical_formula_structural   ThGa2
_chemical_formula_sum   'Th2 Ga4'
_cell_volume   133.05937154
_cell_formula_units_Z   2
loop_
 _symmetry_equiv_pos_site_id
 _symmetry_equiv_pos_as_xyz
  1  'x, y, z'
loop_
 _atom_site_type_symbol
 _atom_site_label
 _atom_site_symmetry_multiplicity
 _atom_site_fract_x
 _atom_site_fract_y
 _atom_site_fract_z
 _atom_site_occupancy
  Th  Th0  1  0.87500000  0.62500000  0.25000000  1
  Th  Th1  1  0.12500000  0.37500000  0.75000000  1
  Ga  Ga2  1  0.70822716  0.95822716  0.91645532  1
  Ga  Ga3  1  0.45822716  0.20822716  0.41645532  1
  Ga  Ga4  1  0.54177284  0.79177284  0.58354468  1
  Ga  Ga5  1  0.29177284  0.04177284  0.08354468  1
