# generated using pymatgen
data_Tm
_symmetry_space_group_name_H-M   'P 1'
_cell_length_a   3.51299116
_cell_length_b   3.51298954
_cell_length_c   11.24748319
_cell_angle_alpha   90.00000000
_cell_angle_beta   90.00000000
_cell_angle_gamma   119.99998521
_symmetry_Int_Tables_number   1
_chemical_formula_structural   Tm
_chemical_formula_sum   Tm4
_cell_volume   120.20982448
_cell_formula_units_Z   4
loop_
 _symmetry_equiv_pos_site_id
 _symmetry_equiv_pos_as_xyz
  1  'x, y, z'
loop_
 _atom_site_type_symbol
 _atom_site_label
 _atom_site_symmetry_multiplicity
 _atom_site_fract_x
 _atom_site_fract_y
 _atom_site_fract_z
 _atom_site_occupancy
  Tm  Tm0  1  -0.00000000  0.00000000  0.99997955  1
  Tm  Tm1  1  0.33333300  0.66666700  0.25000000  1
  Tm  Tm2  1  -0.00000000  0.00000000  0.50002045  1
  Tm  Tm3  1  0.66666600  0.33333300  0.75000000  1
