# generated using pymatgen
data_Zn6Sb5
_symmetry_space_group_name_H-M   'P 1'
_cell_length_a   8.12955534
_cell_length_b   8.12955534
_cell_length_c   8.12955482
_cell_angle_alpha   97.02863398
_cell_angle_beta   97.02863398
_cell_angle_gamma   97.02863143
_symmetry_Int_Tables_number   1
_chemical_formula_structural   Zn6Sb5
_chemical_formula_sum   'Zn12 Sb10'
_cell_volume   524.06543314
_cell_formula_units_Z   2
loop_
 _symmetry_equiv_pos_site_id
 _symmetry_equiv_pos_as_xyz
  1  'x, y, z'
loop_
 _atom_site_type_symbol
 _atom_site_label
 _atom_site_symmetry_multiplicity
 _atom_site_fract_x
 _atom_site_fract_y
 _atom_site_fract_z
 _atom_site_occupancy
  Zn  Zn0  1  0.93595955  0.01619702  0.34164936  1
  Zn  Zn1  1  0.01619702  0.34164936  0.93595955  1
  Zn  Zn2  1  0.34164936  0.93595955  0.01619702  1
  Zn  Zn3  1  0.43595955  0.84164936  0.51619702  1
  Zn  Zn4  1  0.84164936  0.51619702  0.43595955  1
  Zn  Zn5  1  0.51619702  0.43595955  0.84164936  1
  Zn  Zn6  1  0.06404045  0.98380298  0.65835064  1
  Zn  Zn7  1  0.98380298  0.65835064  0.06404045  1
  Zn  Zn8  1  0.65835064  0.06404045  0.98380298  1
  Zn  Zn9  1  0.56404045  0.15835164  0.48380298  1
  Zn  Zn10  1  0.15835164  0.48380298  0.56404045  1
  Zn  Zn11  1  0.48380298  0.56404045  0.15835164  1
  Sb  Sb12  1  0.60637302  0.89362698  0.25000000  1
  Sb  Sb13  1  0.89362698  0.25000000  0.60637302  1
  Sb  Sb14  1  0.25000000  0.60637302  0.89362698  1
  Sb  Sb15  1  0.10637302  0.75000000  0.39362698  1
  Sb  Sb16  1  0.75000000  0.39362698  0.10637302  1
  Sb  Sb17  1  0.39362698  0.10637302  0.75000000  1
  Sb  Sb18  1  0.36441120  0.36441120  0.36441120  1
  Sb  Sb19  1  0.86441120  0.86441120  0.86441120  1
  Sb  Sb20  1  0.63558880  0.63558880  0.63558880  1
  Sb  Sb21  1  0.13558880  0.13558880  0.13558880  1
