# generated using pymatgen
data_TiCl3
_symmetry_space_group_name_H-M   'P 1'
_cell_length_a   6.07312951
_cell_length_b   6.07566451
_cell_length_c   12.23536271
_cell_angle_alpha   89.84694231
_cell_angle_beta   89.67870928
_cell_angle_gamma   59.95307871
_symmetry_Int_Tables_number   1
_chemical_formula_structural   TiCl3
_chemical_formula_sum   'Ti4 Cl12'
_cell_volume   390.78819930
_cell_formula_units_Z   4
loop_
 _symmetry_equiv_pos_site_id
 _symmetry_equiv_pos_as_xyz
  1  'x, y, z'
loop_
 _atom_site_type_symbol
 _atom_site_label
 _atom_site_symmetry_multiplicity
 _atom_site_fract_x
 _atom_site_fract_y
 _atom_site_fract_z
 _atom_site_occupancy
  Ti  Ti0  1  0.50147899  -0.00006753  0.74997747  1
  Ti  Ti1  1  0.84984161  0.30195930  0.74996884  1
  Ti  Ti2  1  0.49852101  0.00006753  0.25002253  1
  Ti  Ti3  1  0.15015839  0.69804070  0.25003116  1
  Cl  Cl4  1  0.16955595  0.00146357  0.86670582  1
  Cl  Cl5  1  0.52495884  0.65122055  0.64202075  1
  Cl  Cl6  1  0.17411834  0.34910073  0.13997392  1
  Cl  Cl7  1  0.82588166  0.65089927  0.86002608  1
  Cl  Cl8  1  0.17724358  0.30220296  0.63296542  1
  Cl  Cl9  1  0.82275642  0.69779704  0.36703458  1
  Cl  Cl10  1  0.47504116  0.34877945  0.35797925  1
  Cl  Cl11  1  0.48088433  0.69844357  0.13355340  1
  Cl  Cl12  1  0.17131880  0.00006499  0.36712136  1
  Cl  Cl13  1  0.51911567  0.30155643  0.86644660  1
  Cl  Cl14  1  0.83044405  -0.00146357  0.13329418  1
  Cl  Cl15  1  0.82868120  0.99993501  0.63287864  1
