# generated using pymatgen
data_U
_symmetry_space_group_name_H-M   'P 1'
_cell_length_a   2.77662790
_cell_length_b   4.84667846
_cell_length_c   4.85098775
_cell_angle_alpha   119.97061240
_cell_angle_beta   90.00000000
_cell_angle_gamma   90.00000000
_symmetry_Int_Tables_number   1
_chemical_formula_structural   U
_chemical_formula_sum   U3
_cell_volume   56.55242495
_cell_formula_units_Z   3
loop_
 _symmetry_equiv_pos_site_id
 _symmetry_equiv_pos_as_xyz
  1  'x, y, z'
loop_
 _atom_site_type_symbol
 _atom_site_label
 _atom_site_symmetry_multiplicity
 _atom_site_fract_x
 _atom_site_fract_y
 _atom_site_fract_z
 _atom_site_occupancy
  U  U0  1  0.00000000  0.69336515  0.33330664  1
  U  U1  1  -0.00000000  0.36005850  0.66669336  1
  U  U2  1  -0.00000000  0.02657735  -0.00000000  1
