# generated using pymatgen
data_YF3
_symmetry_space_group_name_H-M   'P 1'
_cell_length_a   6.75937308
_cell_length_b   6.75931799
_cell_length_c   6.94432009
_cell_angle_alpha   90.00061957
_cell_angle_beta   90.00055689
_cell_angle_gamma   119.99989403
_symmetry_Int_Tables_number   1
_chemical_formula_structural   YF3
_chemical_formula_sum   'Y6 F18'
_cell_volume   274.77051141
_cell_formula_units_Z   6
loop_
 _symmetry_equiv_pos_site_id
 _symmetry_equiv_pos_as_xyz
  1  'x, y, z'
loop_
 _atom_site_type_symbol
 _atom_site_label
 _atom_site_symmetry_multiplicity
 _atom_site_fract_x
 _atom_site_fract_y
 _atom_site_fract_z
 _atom_site_occupancy
  Y  Y0  1  0.34548764  0.34549002  0.75000144  1
  Y  Y1  1  0.65451317  -0.00000037  0.74999821  1
  Y  Y2  1  0.99999829  0.65450716  0.74999999  1
  Y  Y3  1  0.34548683  0.00000037  0.25000179  1
  Y  Y4  1  0.00000171  0.34549284  0.25000001  1
  Y  Y5  1  0.65451236  0.65450998  0.24999856  1
  F  F6  1  0.69312511  0.62628546  0.57888436  1
  F  F7  1  0.37372706  0.06684455  0.57888886  1
  F  F8  1  0.93315005  0.30687617  0.57888558  1
  F  F9  1  0.69312622  0.06684997  0.07888294  1
  F  F10  1  0.93315158  0.62627233  0.07888666  1
  F  F11  1  0.37372693  0.30687909  0.07888596  1
  F  F12  1  0.30687489  0.37371454  0.42111564  1
  F  F13  1  0.62627294  0.93315545  0.42111114  1
  F  F14  1  0.06684995  0.69312383  0.42111442  1
  F  F15  1  0.30687378  0.93315003  0.92111706  1
  F  F16  1  0.06684842  0.37372767  0.92111334  1
  F  F17  1  0.62627307  0.69312091  0.92111404  1
  F  F18  1  0.33333135  0.66666528  0.68201246  1
  F  F19  1  0.33333344  0.66666389  0.18201463  1
  F  F20  1  0.66666865  0.33333472  0.31798754  1
  F  F21  1  0.66666656  0.33333611  0.81798537  1
  F  F22  1  0.00000256  0.00000162  0.75000107  1
  F  F23  1  0.99999744  0.99999838  0.24999893  1
