# generated using pymatgen
data_Hg
_symmetry_space_group_name_H-M   'P 1'
_cell_length_a   3.58876593
_cell_length_b   3.41025115
_cell_length_c   8.33996594
_cell_angle_alpha   82.21209026
_cell_angle_beta   76.84917927
_cell_angle_gamma   56.57551997
_symmetry_Int_Tables_number   1
_chemical_formula_structural   Hg
_chemical_formula_sum   Hg3
_cell_volume   82.94783134
_cell_formula_units_Z   3
loop_
 _symmetry_equiv_pos_site_id
 _symmetry_equiv_pos_as_xyz
  1  'x, y, z'
loop_
 _atom_site_type_symbol
 _atom_site_label
 _atom_site_symmetry_multiplicity
 _atom_site_fract_x
 _atom_site_fract_y
 _atom_site_fract_z
 _atom_site_occupancy
  Hg  Hg0  1  0.25081231  0.15535217  0.33525781  1
  Hg  Hg1  1  0.74918769  0.84464783  0.66474219  1
  Hg  Hg2  1  -0.00000000  0.00000000  -0.00000000  1
