# generated using pymatgen
data_SiO2
_symmetry_space_group_name_H-M   'P 1'
_cell_length_a   7.87961841
_cell_length_b   8.82665421
_cell_length_c   8.82579321
_cell_angle_alpha   90.30224168
_cell_angle_beta   90.00000000
_cell_angle_gamma   90.00000000
_symmetry_Int_Tables_number   1
_chemical_formula_structural   SiO2
_chemical_formula_sum   'Si16 O32'
_cell_volume   613.83126386
_cell_formula_units_Z   16
loop_
 _symmetry_equiv_pos_site_id
 _symmetry_equiv_pos_as_xyz
  1  'x, y, z'
loop_
 _atom_site_type_symbol
 _atom_site_label
 _atom_site_symmetry_multiplicity
 _atom_site_fract_x
 _atom_site_fract_y
 _atom_site_fract_z
 _atom_site_occupancy
  Si  Si0  1  0.12605720  0.16133098  0.35443184  1
  Si  Si1  1  0.63022710  0.10392373  0.59505751  1
  Si  Si2  1  0.14289917  0.59497731  0.08990505  1
  Si  Si3  1  0.86977290  0.10392373  0.09505751  1
  Si  Si4  1  0.87394280  0.83866902  0.64556816  1
  Si  Si5  1  0.64289917  0.40502269  0.41009495  1
  Si  Si6  1  0.85710083  0.40502269  0.91009495  1
  Si  Si7  1  0.60473520  0.65778412  0.84190324  1
  Si  Si8  1  0.36977290  0.89607627  0.40494249  1
  Si  Si9  1  0.13022710  0.89607627  0.90494249  1
  Si  Si10  1  0.39526480  0.34221588  0.15809676  1
  Si  Si11  1  0.35710083  0.59497731  0.58990505  1
  Si  Si12  1  0.89526480  0.65778412  0.34190324  1
  Si  Si13  1  0.37394280  0.16133098  0.85443184  1
  Si  Si14  1  0.62605720  0.83866902  0.14556816  1
  Si  Si15  1  0.10473520  0.34221588  0.65809676  1
  O  O16  1  0.81803588  0.49915019  0.40134313  1
  O  O17  1  0.17938139  0.75101320  0.00392005  1
  O  O18  1  0.68196412  0.49915019  0.90134313  1
  O  O19  1  0.26685351  0.27120821  0.28120427  1
  O  O20  1  0.42445597  0.62787934  0.76034819  1
  O  O21  1  0.76685351  0.72879179  0.21879573  1
  O  O22  1  0.70072225  0.00857597  0.13289549  1
  O  O23  1  0.58022667  0.77488180  0.97987401  1
  O  O24  1  0.20072225  0.99142403  0.36710451  1
  O  O25  1  0.79927775  0.00857597  0.63289549  1
  O  O26  1  0.23314649  0.27120821  0.78120427  1
  O  O27  1  0.95725680  0.15739184  0.25184686  1
  O  O28  1  0.04274320  0.84260816  0.74815314  1
  O  O29  1  0.54274320  0.15739184  0.75184686  1
  O  O30  1  0.31803588  0.50084981  0.09865687  1
  O  O31  1  0.32061861  0.75101320  0.50392005  1
  O  O32  1  0.82061861  0.24898680  0.99607995  1
  O  O33  1  0.18196412  0.50084981  0.59865687  1
  O  O34  1  0.73314649  0.72879179  0.71879573  1
  O  O35  1  0.29927775  0.99142403  0.86710451  1
  O  O36  1  0.08022667  0.22511820  0.52012599  1
  O  O37  1  0.50000000  0.50000000  0.50000000  1
  O  O38  1  0.57554403  0.37212066  0.23965181  1
  O  O39  1  0.07554403  0.62787934  0.26034819  1
  O  O40  1  0.45725680  0.84260816  0.24815314  1
  O  O41  1  0.67938139  0.24898680  0.49607995  1
  O  O42  1  0.41977333  0.22511820  0.02012599  1
  O  O43  1  0.92445597  0.37212066  0.73965181  1
  O  O44  1  0.00000000  0.50000000  -0.00000000  1
  O  O45  1  0.00000000  0.00000000  -0.00000000  1
  O  O46  1  0.91977333  0.77488180  0.47987401  1
  O  O47  1  0.50000000  0.00000000  0.50000000  1
