# generated using pymatgen
data_NiSe
_symmetry_space_group_name_H-M   'P 1'
_cell_length_a   5.84765774
_cell_length_b   5.84765740
_cell_length_c   5.84765928
_cell_angle_alpha   116.51340712
_cell_angle_beta   116.51339899
_cell_angle_gamma   116.51344018
_symmetry_Int_Tables_number   1
_chemical_formula_structural   NiSe
_chemical_formula_sum   'Ni3 Se3'
_cell_volume   94.69001445
_cell_formula_units_Z   3
loop_
 _symmetry_equiv_pos_site_id
 _symmetry_equiv_pos_as_xyz
  1  'x, y, z'
loop_
 _atom_site_type_symbol
 _atom_site_label
 _atom_site_symmetry_multiplicity
 _atom_site_fract_x
 _atom_site_fract_y
 _atom_site_fract_z
 _atom_site_occupancy
  Ni  Ni0  1  0.00720415  0.26254928  0.00720415  1
  Ni  Ni1  1  0.00720415  0.00720415  0.26254928  1
  Ni  Ni2  1  0.26254928  0.00720415  0.00720415  1
  Se  Se3  1  0.72459369  0.38585303  0.72459369  1
  Se  Se4  1  0.72459369  0.72459369  0.38585303  1
  Se  Se5  1  0.38585303  0.72459369  0.72459369  1
