# generated using pymatgen
data_EuIn4
_symmetry_space_group_name_H-M   'P 1'
_cell_length_a   6.72003928
_cell_length_b   6.72003928
_cell_length_c   9.78622574
_cell_angle_alpha   68.89554518
_cell_angle_beta   68.89554518
_cell_angle_gamma   43.16326812
_symmetry_Int_Tables_number   1
_chemical_formula_structural   EuIn4
_chemical_formula_sum   'Eu2 In8'
_cell_volume   278.73493460
_cell_formula_units_Z   2
loop_
 _symmetry_equiv_pos_site_id
 _symmetry_equiv_pos_as_xyz
  1  'x, y, z'
loop_
 _atom_site_type_symbol
 _atom_site_label
 _atom_site_symmetry_multiplicity
 _atom_site_fract_x
 _atom_site_fract_y
 _atom_site_fract_z
 _atom_site_occupancy
  Eu  Eu0  1  0.14759952  0.14759952  0.29833636  1
  Eu  Eu1  1  0.85240048  0.85240048  0.70166364  1
  In  In2  1  0.43524910  0.43524910  0.90509763  1
  In  In3  1  0.17261752  0.17261752  0.64002818  1
  In  In4  1  0.57106341  0.57106341  0.58646287  1
  In  In5  1  0.56475090  0.56475090  0.09490237  1
  In  In6  1  0.82738248  0.82738248  0.35997182  1
  In  In7  1  0.17341529  0.17341529  0.94190771  1
  In  In8  1  0.82658471  0.82658471  0.05809229  1
  In  In9  1  0.42893659  0.42893659  0.41353713  1
