# generated using pymatgen
data_Ba
_symmetry_space_group_name_H-M   'P 1'
_cell_length_a   3.92064125
_cell_length_b   5.53791407
_cell_length_c   5.53892970
_cell_angle_alpha   90.00451971
_cell_angle_beta   90.01701316
_cell_angle_gamma   90.02098260
_symmetry_Int_Tables_number   1
_chemical_formula_structural   Ba
_chemical_formula_sum   Ba2
_cell_volume   120.26219359
_cell_formula_units_Z   2
loop_
 _symmetry_equiv_pos_site_id
 _symmetry_equiv_pos_as_xyz
  1  'x, y, z'
loop_
 _atom_site_type_symbol
 _atom_site_label
 _atom_site_symmetry_multiplicity
 _atom_site_fract_x
 _atom_site_fract_y
 _atom_site_fract_z
 _atom_site_occupancy
  Ba  Ba0  1  0.00000000  0.00000100  0.99999900  1
  Ba  Ba1  1  -0.00000000  0.49999900  0.50000100  1
