# generated using pymatgen
data_UF3
_symmetry_space_group_name_H-M   'P 1'
_cell_length_a   7.12852789
_cell_length_b   7.12278987
_cell_length_c   7.33946661
_cell_angle_alpha   90.00000000
_cell_angle_beta   90.00000000
_cell_angle_gamma   119.97337022
_symmetry_Int_Tables_number   1
_chemical_formula_structural   UF3
_chemical_formula_sum   'U6 F18'
_cell_volume   322.82086150
_cell_formula_units_Z   6
loop_
 _symmetry_equiv_pos_site_id
 _symmetry_equiv_pos_as_xyz
  1  'x, y, z'
loop_
 _atom_site_type_symbol
 _atom_site_label
 _atom_site_symmetry_multiplicity
 _atom_site_fract_x
 _atom_site_fract_y
 _atom_site_fract_z
 _atom_site_occupancy
  U  U0  1  0.32755516  0.99914264  0.74812838  1
  U  U1  1  0.32755516  0.32841252  0.24812838  1
  U  U2  1  -0.00000000  0.67529659  0.25208081  1
  U  U3  1  0.00000000  0.32470341  0.75208081  1
  U  U4  1  0.67244484  0.67158748  0.74812838  1
  U  U5  1  0.67244484  0.00085736  0.24812838  1
  F  F6  1  0.63027878  0.00568814  0.91647929  1
  F  F7  1  0.63027878  0.62459165  0.41647929  1
  F  F8  1  -0.00000000  0.37520918  0.41853788  1
  F  F9  1  0.00000000  0.62479082  0.91853788  1
  F  F10  1  0.36972122  0.37540835  0.91647929  1
  F  F11  1  0.36972122  0.99431186  0.41647929  1
  F  F12  1  -0.00000000  0.00014413  0.32570684  1
  F  F13  1  0.00000000  0.99985587  0.82570684  1
  F  F14  1  0.33517338  0.66763623  0.19791150  1
  F  F15  1  0.66482662  0.33236377  0.69791150  1
  F  F16  1  0.33517338  0.66753815  0.69791150  1
  F  F17  1  0.66482662  0.33246185  0.19791150  1
  F  F18  1  0.28118196  0.00159767  0.08065265  1
  F  F19  1  0.28118196  0.27958429  0.58065265  1
  F  F20  1  -0.00000000  0.71811639  0.58343284  1
  F  F21  1  0.00000000  0.28188361  0.08343284  1
  F  F22  1  0.71881804  0.72041571  0.08065265  1
  F  F23  1  0.71881804  0.99840233  0.58065265  1
