# generated using pymatgen
data_Ba5Sn3
_symmetry_space_group_name_H-M   'P 1'
_cell_length_a   9.08573686
_cell_length_b   9.08573661
_cell_length_c   10.76350306
_cell_angle_alpha   114.96485376
_cell_angle_beta   114.96484650
_cell_angle_gamma   90.00000690
_symmetry_Int_Tables_number   1
_chemical_formula_structural   Ba5Sn3
_chemical_formula_sum   'Ba10 Sn6'
_cell_volume   712.89373019
_cell_formula_units_Z   2
loop_
 _symmetry_equiv_pos_site_id
 _symmetry_equiv_pos_as_xyz
  1  'x, y, z'
loop_
 _atom_site_type_symbol
 _atom_site_label
 _atom_site_symmetry_multiplicity
 _atom_site_fract_x
 _atom_site_fract_y
 _atom_site_fract_z
 _atom_site_occupancy
  Ba  Ba0  1  0.67824601  0.17824601  0.71665889  1
  Ba  Ba1  1  0.96158613  0.46158513  0.28334111  1
  Ba  Ba2  1  0.00000000  -0.00000000  -0.00000000  1
  Ba  Ba3  1  0.50000000  0.50000000  -0.00000000  1
  Ba  Ba4  1  0.03841387  0.53841387  0.71665889  1
  Ba  Ba5  1  0.17824601  0.03841387  0.71665889  1
  Ba  Ba6  1  0.53841387  0.67824601  0.71665889  1
  Ba  Ba7  1  0.82175399  0.96158613  0.28334111  1
  Ba  Ba8  1  0.46158513  0.32175399  0.28334111  1
  Ba  Ba9  1  0.32175399  0.82175399  0.28334111  1
  Sn  Sn10  1  0.75000000  0.75000000  0.50000000  1
  Sn  Sn11  1  0.25000000  0.25000000  0.50000000  1
  Sn  Sn12  1  0.61427840  0.11427840  -0.00000000  1
  Sn  Sn13  1  0.88572160  0.61427840  0.00000000  1
  Sn  Sn14  1  0.11427840  0.38572160  -0.00000000  1
  Sn  Sn15  1  0.38572160  0.88572160  0.00000000  1
