# generated using pymatgen
data_Sn2Pd
_symmetry_space_group_name_H-M   'P 1'
_cell_length_a   6.54137120
_cell_length_b   6.54137097
_cell_length_c   13.14812086
_cell_angle_alpha   104.43790577
_cell_angle_beta   104.43779676
_cell_angle_gamma   90.02688922
_symmetry_Int_Tables_number   1
_chemical_formula_structural   Sn2Pd
_chemical_formula_sum   'Sn16 Pd8'
_cell_volume   526.44962735
_cell_formula_units_Z   8
loop_
 _symmetry_equiv_pos_site_id
 _symmetry_equiv_pos_as_xyz
  1  'x, y, z'
loop_
 _atom_site_type_symbol
 _atom_site_label
 _atom_site_symmetry_multiplicity
 _atom_site_fract_x
 _atom_site_fract_y
 _atom_site_fract_z
 _atom_site_occupancy
  Sn  Sn0  1  0.71646802  0.28350913  0.24997680  1
  Sn  Sn1  1  0.46650030  0.21647740  0.75003944  1
  Sn  Sn2  1  0.78354635  0.53352109  0.75000723  1
  Sn  Sn3  1  0.03351012  0.96646772  0.24997682  1
  Sn  Sn4  1  0.28353056  0.71649260  0.75002339  1
  Sn  Sn5  1  0.53350019  0.78352348  0.24996082  1
  Sn  Sn6  1  0.21645377  0.46647737  0.24999289  1
  Sn  Sn7  1  0.96649141  0.03353078  0.75002337  1
  Sn  Sn8  1  0.25001573  0.50057911  0.49996609  1
  Sn  Sn9  1  0.49942090  0.74998481  0.00003419  1
  Sn  Sn10  1  0.00052989  0.25001365  0.00002921  1
  Sn  Sn11  1  0.74998635  0.99947029  0.49997103  1
  Sn  Sn12  1  0.74996448  0.49939909  0.49999031  1
  Sn  Sn13  1  0.50060134  0.25003538  0.00000995  1
  Sn  Sn14  1  0.99949672  0.75000739  0.00001541  1
  Sn  Sn15  1  0.24999300  0.00050326  0.49998488  1
  Pd  Pd16  1  0.06676454  0.31682916  0.63357683  1
  Pd  Pd17  1  0.81681439  0.56682716  0.13358366  1
  Pd  Pd18  1  0.43316100  0.18317551  0.36639470  1
  Pd  Pd19  1  0.68317994  0.93324461  0.86644240  1
  Pd  Pd20  1  0.93322503  0.68316682  0.36641150  1
  Pd  Pd21  1  0.18319496  0.43318074  0.86643548  1
  Pd  Pd22  1  0.56682848  0.81681424  0.63358390  1
  Pd  Pd23  1  0.31682351  0.06676619  0.13356968  1
