# generated using pymatgen
data_Ho
_symmetry_space_group_name_H-M   'P 1'
_cell_length_a   3.56802952
_cell_length_b   3.56802952
_cell_length_c   8.70684944
_cell_angle_alpha   78.17648604
_cell_angle_beta   78.17648604
_cell_angle_gamma   60.00004598
_symmetry_Int_Tables_number   1
_chemical_formula_structural   Ho
_chemical_formula_sum   Ho3
_cell_volume   93.26955877
_cell_formula_units_Z   3
loop_
 _symmetry_equiv_pos_site_id
 _symmetry_equiv_pos_as_xyz
  1  'x, y, z'
loop_
 _atom_site_type_symbol
 _atom_site_label
 _atom_site_symmetry_multiplicity
 _atom_site_fract_x
 _atom_site_fract_y
 _atom_site_fract_z
 _atom_site_occupancy
  Ho  Ho0  1  0.00000000  0.00000000  -0.00000000  1
  Ho  Ho1  1  0.22193247  0.22193247  0.33420558  1
  Ho  Ho2  1  0.77806753  0.77806753  0.66579442  1
