# generated using pymatgen
data_Ge3Ru2
_symmetry_space_group_name_H-M   'P 1'
_cell_length_a   5.73900814
_cell_length_b   5.73904949
_cell_length_c   9.27968842
_cell_angle_alpha   89.99790169
_cell_angle_beta   89.99384316
_cell_angle_gamma   90.00466864
_symmetry_Int_Tables_number   1
_chemical_formula_structural   Ge3Ru2
_chemical_formula_sum   'Ge12 Ru8'
_cell_volume   305.64000650
_cell_formula_units_Z   4
loop_
 _symmetry_equiv_pos_site_id
 _symmetry_equiv_pos_as_xyz
  1  'x, y, z'
loop_
 _atom_site_type_symbol
 _atom_site_label
 _atom_site_symmetry_multiplicity
 _atom_site_fract_x
 _atom_site_fract_y
 _atom_site_fract_z
 _atom_site_occupancy
  Ge  Ge0  1  0.82712770  0.82636713  0.74983275  1
  Ge  Ge1  1  0.82685645  0.17364005  0.24994573  1
  Ge  Ge2  1  0.34836420  0.21704358  0.41420978  1
  Ge  Ge3  1  0.34842740  0.78334627  0.91386615  1
  Ge  Ge4  1  0.21821015  0.34866987  0.08549549  1
  Ge  Ge5  1  0.78183909  0.34842304  0.58556783  1
  Ge  Ge6  1  0.65165391  0.78262149  0.41426306  1
  Ge  Ge7  1  0.17310896  0.17380826  0.74988337  1
  Ge  Ge8  1  0.17293898  0.82619282  0.24978022  1
  Ge  Ge9  1  0.78139116  0.65157036  0.08529470  1
  Ge  Ge10  1  0.21828271  0.65133398  0.58546141  1
  Ge  Ge11  1  0.65172418  0.21734287  0.91431492  1
  Ru  Ru12  1  0.00003754  0.50007299  0.87676102  1
  Ru  Ru13  1  0.00002147  0.00004723  0.00027050  1
  Ru  Ru14  1  0.49997550  0.99998781  0.12367419  1
  Ru  Ru15  1  0.00002406  0.49990940  0.37682282  1
  Ru  Ru16  1  0.49999233  0.99984797  0.62377386  1
  Ru  Ru17  1  0.50000562  0.49993116  0.25024219  1
  Ru  Ru18  1  0.50003027  0.49993268  0.75022489  1
  Ru  Ru19  1  0.99998533  0.99991102  0.50030812  1
