# generated using pymatgen
data_TbBr
_symmetry_space_group_name_H-M   'P 1'
_cell_length_a   10.31430453
_cell_length_b   10.31430453
_cell_length_c   10.31430363
_cell_angle_alpha   21.38275363
_cell_angle_beta   21.38275363
_cell_angle_gamma   21.38275761
_symmetry_Int_Tables_number   1
_chemical_formula_structural   TbBr
_chemical_formula_sum   'Tb2 Br2'
_cell_volume   127.78659972
_cell_formula_units_Z   2
loop_
 _symmetry_equiv_pos_site_id
 _symmetry_equiv_pos_as_xyz
  1  'x, y, z'
loop_
 _atom_site_type_symbol
 _atom_site_label
 _atom_site_symmetry_multiplicity
 _atom_site_fract_x
 _atom_site_fract_y
 _atom_site_fract_z
 _atom_site_occupancy
  Tb  Tb0  1  0.87904135  0.87904135  0.87904135  1
  Tb  Tb1  1  0.12095865  0.12095865  0.12095865  1
  Br  Br2  1  0.60848228  0.60848228  0.60848228  1
  Br  Br3  1  0.39151772  0.39151772  0.39151772  1
