# generated using pymatgen
data_CeGa6
_symmetry_space_group_name_H-M   'P 1'
_cell_length_a   5.99564119
_cell_length_b   5.99564119
_cell_length_c   7.66840545
_cell_angle_alpha   90.00000000
_cell_angle_beta   90.00000000
_cell_angle_gamma   90.00000000
_symmetry_Int_Tables_number   1
_chemical_formula_structural   CeGa6
_chemical_formula_sum   'Ce2 Ga12'
_cell_volume   275.66164043
_cell_formula_units_Z   2
loop_
 _symmetry_equiv_pos_site_id
 _symmetry_equiv_pos_as_xyz
  1  'x, y, z'
loop_
 _atom_site_type_symbol
 _atom_site_label
 _atom_site_symmetry_multiplicity
 _atom_site_fract_x
 _atom_site_fract_y
 _atom_site_fract_z
 _atom_site_occupancy
  Ce  Ce0  1  0.25000000  0.75000000  -0.00000000  1
  Ce  Ce1  1  0.75000000  0.25000000  -0.00000000  1
  Ga  Ga2  1  0.95455468  0.04544532  0.34640908  1
  Ga  Ga3  1  0.54544532  0.45455468  0.34640908  1
  Ga  Ga4  1  0.25000000  0.25000000  0.16042056  1
  Ga  Ga5  1  0.25000000  0.25000000  0.83957944  1
  Ga  Ga6  1  0.75000000  0.75000000  0.83957944  1
  Ga  Ga7  1  0.75000000  0.75000000  0.16042056  1
  Ga  Ga8  1  0.45455468  0.54544532  0.65359092  1
  Ga  Ga9  1  0.95455468  0.45455468  0.65359092  1
  Ga  Ga10  1  0.54544532  0.04544532  0.65359092  1
  Ga  Ga11  1  0.45455468  0.95455468  0.34640908  1
  Ga  Ga12  1  0.04544532  0.54544532  0.34640908  1
  Ga  Ga13  1  0.04544532  0.95455468  0.65359092  1
