# generated using pymatgen
data_Ca
_symmetry_space_group_name_H-M   'P 1'
_cell_length_a   5.04552271
_cell_length_b   5.04552271
_cell_length_c   7.00911965
_cell_angle_alpha   90.00000000
_cell_angle_beta   90.00000000
_cell_angle_gamma   93.31716027
_symmetry_Int_Tables_number   1
_chemical_formula_structural   Ca
_chemical_formula_sum   Ca4
_cell_volume   178.13429798
_cell_formula_units_Z   4
loop_
 _symmetry_equiv_pos_site_id
 _symmetry_equiv_pos_as_xyz
  1  'x, y, z'
loop_
 _atom_site_type_symbol
 _atom_site_label
 _atom_site_symmetry_multiplicity
 _atom_site_fract_x
 _atom_site_fract_y
 _atom_site_fract_z
 _atom_site_occupancy
  Ca  Ca0  1  0.66178946  0.33821054  0.30348589  1
  Ca  Ca1  1  0.33821054  0.66178946  0.69651411  1
  Ca  Ca2  1  0.83821054  0.16178946  0.80348589  1
  Ca  Ca3  1  0.16178946  0.83821054  0.19651411  1
