# generated using pymatgen
data_NiS2
_symmetry_space_group_name_H-M   'P 1'
_cell_length_a   5.30005490
_cell_length_b   5.27805032
_cell_length_c   5.20147142
_cell_angle_alpha   89.99203781
_cell_angle_beta   90.00021900
_cell_angle_gamma   45.34665226
_symmetry_Int_Tables_number   1
_chemical_formula_structural   NiS2
_chemical_formula_sum   'Ni2 S4'
_cell_volume   103.50869888
_cell_formula_units_Z   2
loop_
 _symmetry_equiv_pos_site_id
 _symmetry_equiv_pos_as_xyz
  1  'x, y, z'
loop_
 _atom_site_type_symbol
 _atom_site_label
 _atom_site_symmetry_multiplicity
 _atom_site_fract_x
 _atom_site_fract_y
 _atom_site_fract_z
 _atom_site_occupancy
  Ni  Ni0  1  0.75106429  0.49840761  0.16639573  1
  Ni  Ni1  1  0.24894400  0.50158070  0.66641404  1
  S  S2  1  0.26741690  0.64970349  0.04999310  1
  S  S3  1  0.76670063  0.65083432  0.78357080  1
  S  S4  1  0.23333780  0.34913996  0.28361544  1
  S  S5  1  0.73253639  0.35033492  0.55001289  1
