# generated using pymatgen
data_UBr3
_symmetry_space_group_name_H-M   'P 1'
_cell_length_a   8.01669280
_cell_length_b   8.10377908
_cell_length_c   4.42527620
_cell_angle_alpha   90.00000000
_cell_angle_beta   90.00000000
_cell_angle_gamma   120.33664892
_symmetry_Int_Tables_number   1
_chemical_formula_structural   UBr3
_chemical_formula_sum   'U2 Br6'
_cell_volume   248.12502854
_cell_formula_units_Z   2
loop_
 _symmetry_equiv_pos_site_id
 _symmetry_equiv_pos_as_xyz
  1  'x, y, z'
loop_
 _atom_site_type_symbol
 _atom_site_label
 _atom_site_symmetry_multiplicity
 _atom_site_fract_x
 _atom_site_fract_y
 _atom_site_fract_z
 _atom_site_occupancy
  U  U0  1  0.66394413  0.32979533  0.75000000  1
  U  U1  1  0.33589443  0.67018184  0.25000000  1
  Br  Br2  1  0.61241010  0.69806794  0.75000000  1
  Br  Br3  1  0.91184827  0.60817464  0.25000000  1
  Br  Br4  1  0.38741041  0.30181186  0.25000000  1
  Br  Br5  1  0.08852089  0.39179473  0.75000000  1
  Br  Br6  1  0.29947278  0.91266339  0.75000000  1
  Br  Br7  1  0.70049599  0.08751127  0.25000000  1
