# generated using pymatgen
data_CoCl2
_symmetry_space_group_name_H-M   'P 1'
_cell_length_a   3.42381608
_cell_length_b   3.42381608
_cell_length_c   5.85162263
_cell_angle_alpha   90.28980595
_cell_angle_beta   90.28980595
_cell_angle_gamma   62.75158734
_symmetry_Int_Tables_number   1
_chemical_formula_structural   CoCl2
_chemical_formula_sum   'Co1 Cl2'
_cell_volume   60.98259137
_cell_formula_units_Z   1
loop_
 _symmetry_equiv_pos_site_id
 _symmetry_equiv_pos_as_xyz
  1  'x, y, z'
loop_
 _atom_site_type_symbol
 _atom_site_label
 _atom_site_symmetry_multiplicity
 _atom_site_fract_x
 _atom_site_fract_y
 _atom_site_fract_z
 _atom_site_occupancy
  Co  Co0  1  -0.00000000  -0.00000000  -0.00000000  1
  Cl  Cl1  1  0.67856261  0.67856261  0.77873512  1
  Cl  Cl2  1  0.32143739  0.32143739  0.22126488  1
