# generated using pymatgen
data_SnP
_symmetry_space_group_name_H-M   'P 1'
_cell_length_a   3.84068491
_cell_length_b   3.84068422
_cell_length_c   4.07270195
_cell_angle_alpha   118.13270436
_cell_angle_beta   118.13271965
_cell_angle_gamma   90.00000805
_symmetry_Int_Tables_number   1
_chemical_formula_structural   SnP
_chemical_formula_sum   'Sn1 P1'
_cell_volume   44.76946013
_cell_formula_units_Z   1
loop_
 _symmetry_equiv_pos_site_id
 _symmetry_equiv_pos_as_xyz
  1  'x, y, z'
loop_
 _atom_site_type_symbol
 _atom_site_label
 _atom_site_symmetry_multiplicity
 _atom_site_fract_x
 _atom_site_fract_y
 _atom_site_fract_z
 _atom_site_occupancy
  Sn  Sn0  1  0.99939110  0.99939110  0.99878320  1
  P  P1  1  0.42860890  0.42860890  0.85721680  1
