# generated using pymatgen
data_PaBi3
_symmetry_space_group_name_H-M   'P 1'
_cell_length_a   6.39066456
_cell_length_b   6.39066456
_cell_length_c   6.39066456
_cell_angle_alpha   137.85750120
_cell_angle_beta   137.85750120
_cell_angle_gamma   61.12131226
_symmetry_Int_Tables_number   1
_chemical_formula_structural   PaBi3
_chemical_formula_sum   'Pa1 Bi3'
_cell_volume   116.20216435
_cell_formula_units_Z   1
loop_
 _symmetry_equiv_pos_site_id
 _symmetry_equiv_pos_as_xyz
  1  'x, y, z'
loop_
 _atom_site_type_symbol
 _atom_site_label
 _atom_site_symmetry_multiplicity
 _atom_site_fract_x
 _atom_site_fract_y
 _atom_site_fract_z
 _atom_site_occupancy
  Pa  Pa0  1  0.00000000  -0.00000000  0.00000000  1
  Bi  Bi1  1  0.74999800  0.24999900  0.49999800  1
  Bi  Bi2  1  0.24999900  0.74999800  0.49999800  1
  Bi  Bi3  1  0.50000000  0.50000000  0.00000000  1
