# generated using pymatgen
data_CrCl3
_symmetry_space_group_name_H-M   'P 1'
_cell_length_a   5.99596971
_cell_length_b   5.99607374
_cell_length_c   6.28995714
_cell_angle_alpha   98.59360103
_cell_angle_beta   98.70652902
_cell_angle_gamma   119.95495998
_symmetry_Int_Tables_number   1
_chemical_formula_structural   CrCl3
_chemical_formula_sum   'Cr2 Cl6'
_cell_volume   186.86885403
_cell_formula_units_Z   2
loop_
 _symmetry_equiv_pos_site_id
 _symmetry_equiv_pos_as_xyz
  1  'x, y, z'
loop_
 _atom_site_type_symbol
 _atom_site_label
 _atom_site_symmetry_multiplicity
 _atom_site_fract_x
 _atom_site_fract_y
 _atom_site_fract_z
 _atom_site_occupancy
  Cr  Cr0  1  0.16669417  0.83326796  -0.00000309  1
  Cr  Cr1  1  0.83328820  0.16671397  0.99997572  1
  Cl  Cl2  1  0.07390778  0.42990995  0.77754879  1
  Cl  Cl3  1  0.57034430  0.92567450  0.22233403  1
  Cl  Cl4  1  0.78631975  0.78664955  0.77657974  1
  Cl  Cl5  1  0.21361819  0.21327804  0.22341377  1
  Cl  Cl6  1  0.42966334  0.07442604  0.77769643  1
  Cl  Cl7  1  0.92616428  0.57008000  0.22245461  1
