# generated using pymatgen
data_Te2Au
_symmetry_space_group_name_H-M   'P 1'
_cell_length_a   4.18911133
_cell_length_b   4.18911111
_cell_length_c   5.19450360
_cell_angle_alpha   90.10269637
_cell_angle_beta   90.10269114
_cell_angle_gamma   60.31599486
_symmetry_Int_Tables_number   1
_chemical_formula_structural   Te2Au
_chemical_formula_sum   'Te2 Au1'
_cell_volume   79.19387857
_cell_formula_units_Z   1
loop_
 _symmetry_equiv_pos_site_id
 _symmetry_equiv_pos_as_xyz
  1  'x, y, z'
loop_
 _atom_site_type_symbol
 _atom_site_label
 _atom_site_symmetry_multiplicity
 _atom_site_fract_x
 _atom_site_fract_y
 _atom_site_fract_z
 _atom_site_occupancy
  Te  Te0  1  0.31866590  0.31866590  0.28912114  1
  Te  Te1  1  0.68133410  0.68133410  0.71087886  1
  Au  Au2  1  -0.00000000  -0.00000000  -0.00000000  1
