# generated using pymatgen
data_FeSe
_symmetry_space_group_name_H-M   'P 1'
_cell_length_a   3.93329079
_cell_length_b   3.93328950
_cell_length_c   5.85659133
_cell_angle_alpha   89.99995388
_cell_angle_beta   89.99995108
_cell_angle_gamma   90.00013096
_symmetry_Int_Tables_number   1
_chemical_formula_structural   FeSe
_chemical_formula_sum   'Fe2 Se2'
_cell_volume   90.60598544
_cell_formula_units_Z   2
loop_
 _symmetry_equiv_pos_site_id
 _symmetry_equiv_pos_as_xyz
  1  'x, y, z'
loop_
 _atom_site_type_symbol
 _atom_site_label
 _atom_site_symmetry_multiplicity
 _atom_site_fract_x
 _atom_site_fract_y
 _atom_site_fract_z
 _atom_site_occupancy
  Fe  Fe0  1  0.25000000  0.75000000  -0.00000000  1
  Fe  Fe1  1  0.75000000  0.25000000  -0.00000000  1
  Se  Se2  1  0.24999900  0.25000000  0.25764554  1
  Se  Se3  1  0.75000100  0.75000000  0.74235446  1
