# generated using pymatgen
data_Pr2Br5
_symmetry_space_group_name_H-M   'P 1'
_cell_length_a   4.20518785
_cell_length_b   7.93651861
_cell_length_c   13.49702338
_cell_angle_alpha   90.31221599
_cell_angle_beta   90.00000000
_cell_angle_gamma   90.00000000
_symmetry_Int_Tables_number   1
_chemical_formula_structural   Pr2Br5
_chemical_formula_sum   'Pr4 Br10'
_cell_volume   450.45041547
_cell_formula_units_Z   2
loop_
 _symmetry_equiv_pos_site_id
 _symmetry_equiv_pos_as_xyz
  1  'x, y, z'
loop_
 _atom_site_type_symbol
 _atom_site_label
 _atom_site_symmetry_multiplicity
 _atom_site_fract_x
 _atom_site_fract_y
 _atom_site_fract_z
 _atom_site_occupancy
  Pr  Pr0  1  0.25000000  0.92059994  0.15973924  1
  Pr  Pr1  1  0.75000000  0.07940006  0.84026076  1
  Pr  Pr2  1  0.25000000  0.42379025  0.65899718  1
  Pr  Pr3  1  0.75000000  0.57620975  0.34100282  1
  Br  Br4  1  0.25000000  0.33512898  0.27323814  1
  Br  Br5  1  0.75000000  0.66487102  0.72676186  1
  Br  Br6  1  0.25000000  0.85269340  0.93014613  1
  Br  Br7  1  0.75000000  0.14730660  0.06985387  1
  Br  Br8  1  0.75000000  0.30967330  0.51140956  1
  Br  Br9  1  0.25000000  0.69032670  0.48859044  1
  Br  Br10  1  0.75000000  0.95359873  0.31991451  1
  Br  Br11  1  0.25000000  0.04640127  0.68008449  1
  Br  Br12  1  0.75000000  0.65074739  0.12063719  1
  Br  Br13  1  0.25000000  0.34925261  0.87936281  1
