# generated using pymatgen
data_Gd
_symmetry_space_group_name_H-M   'P 1'
_cell_length_a   3.65552046
_cell_length_b   3.65552083
_cell_length_c   11.77960696
_cell_angle_alpha   90.00000000
_cell_angle_beta   90.00000000
_cell_angle_gamma   120.00000672
_symmetry_Int_Tables_number   1
_chemical_formula_structural   Gd
_chemical_formula_sum   Gd4
_cell_volume   136.32009636
_cell_formula_units_Z   4
loop_
 _symmetry_equiv_pos_site_id
 _symmetry_equiv_pos_as_xyz
  1  'x, y, z'
loop_
 _atom_site_type_symbol
 _atom_site_label
 _atom_site_symmetry_multiplicity
 _atom_site_fract_x
 _atom_site_fract_y
 _atom_site_fract_z
 _atom_site_occupancy
  Gd  Gd0  1  -0.00000000  0.00000000  0.00000000  1
  Gd  Gd1  1  -0.00000000  0.00000000  0.50000000  1
  Gd  Gd2  1  0.33333300  0.66666700  0.24808348  1
  Gd  Gd3  1  0.66666700  0.33333300  0.75191652  1
