# generated using pymatgen
data_CoF3
_symmetry_space_group_name_H-M   'P 1'
_cell_length_a   5.16742394
_cell_length_b   5.20335096
_cell_length_c   5.14876709
_cell_angle_alpha   55.11590294
_cell_angle_beta   54.99637183
_cell_angle_gamma   55.51422327
_symmetry_Int_Tables_number   1
_chemical_formula_structural   CoF3
_chemical_formula_sum   'Co2 F6'
_cell_volume   86.98391207
_cell_formula_units_Z   2
loop_
 _symmetry_equiv_pos_site_id
 _symmetry_equiv_pos_as_xyz
  1  'x, y, z'
loop_
 _atom_site_type_symbol
 _atom_site_label
 _atom_site_symmetry_multiplicity
 _atom_site_fract_x
 _atom_site_fract_y
 _atom_site_fract_z
 _atom_site_occupancy
  Co  Co0  1  -0.00000000  0.00000000  -0.00000000  1
  Co  Co1  1  0.50000000  0.50000000  0.50000000  1
  F  F2  1  0.74969049  0.12371998  0.38736545  1
  F  F3  1  0.39478809  0.74367550  0.11595748  1
  F  F4  1  0.12020086  0.38485298  0.74408308  1
  F  F5  1  0.25030951  0.87628002  0.61263455  1
  F  F6  1  0.60521191  0.25632450  0.88404252  1
  F  F7  1  0.87979914  0.61514702  0.25591692  1
