# generated using pymatgen
data_I
_symmetry_space_group_name_H-M   'P 1'
_cell_length_a   2.88042739
_cell_length_b   4.19670192
_cell_length_c   4.49106081
_cell_angle_alpha   117.71902454
_cell_angle_beta   108.51091095
_cell_angle_gamma   90.32314884
_symmetry_Int_Tables_number   1
_chemical_formula_structural   I
_chemical_formula_sum   I1
_cell_volume   44.80605045
_cell_formula_units_Z   1
loop_
 _symmetry_equiv_pos_site_id
 _symmetry_equiv_pos_as_xyz
  1  'x, y, z'
loop_
 _atom_site_type_symbol
 _atom_site_label
 _atom_site_symmetry_multiplicity
 _atom_site_fract_x
 _atom_site_fract_y
 _atom_site_fract_z
 _atom_site_occupancy
  I  I0  1  0.01732100  0.99543800  0.00332200  1
