# generated using pymatgen
data_Ta2H
_symmetry_space_group_name_H-M   'P 1'
_cell_length_a   2.91906441
_cell_length_b   2.91906441
_cell_length_c   4.88388478
_cell_angle_alpha   84.20063234
_cell_angle_beta   84.20063234
_cell_angle_gamma   67.61383065
_symmetry_Int_Tables_number   1
_chemical_formula_structural   Ta2H
_chemical_formula_sum   'Ta2 H1'
_cell_volume   38.19348534
_cell_formula_units_Z   1
loop_
 _symmetry_equiv_pos_site_id
 _symmetry_equiv_pos_as_xyz
  1  'x, y, z'
loop_
 _atom_site_type_symbol
 _atom_site_label
 _atom_site_symmetry_multiplicity
 _atom_site_fract_x
 _atom_site_fract_y
 _atom_site_fract_z
 _atom_site_occupancy
  Ta  Ta0  1  0.23364374  0.23364374  0.73743736  1
  Ta  Ta1  1  0.76635626  0.76635626  0.26256264  1
  H  H2  1  0.50000000  0.50000000  0.00000000  1
