# generated using pymatgen
data_HgF2
_symmetry_space_group_name_H-M   'P 1'
_cell_length_a   5.16786896
_cell_length_b   5.16786896
_cell_length_c   3.75936033
_cell_angle_alpha   90.00000000
_cell_angle_beta   90.00000000
_cell_angle_gamma   90.00000000
_symmetry_Int_Tables_number   1
_chemical_formula_structural   HgF2
_chemical_formula_sum   'Hg2 F4'
_cell_volume   100.40074607
_cell_formula_units_Z   2
loop_
 _symmetry_equiv_pos_site_id
 _symmetry_equiv_pos_as_xyz
  1  'x, y, z'
loop_
 _atom_site_type_symbol
 _atom_site_label
 _atom_site_symmetry_multiplicity
 _atom_site_fract_x
 _atom_site_fract_y
 _atom_site_fract_z
 _atom_site_occupancy
  Hg  Hg0  1  0.00000000  -0.00000000  0.00000000  1
  Hg  Hg1  1  0.50000100  0.50000100  0.50000100  1
  F  F2  1  0.30600878  0.30600878  -0.00000000  1
  F  F3  1  0.69399122  0.69399122  0.00000000  1
  F  F4  1  0.80601078  0.19399022  0.50000100  1
  F  F5  1  0.19399022  0.80601078  0.50000100  1
