# generated using pymatgen
data_YO2
_symmetry_space_group_name_H-M   'P 1'
_cell_length_a   3.61061841
_cell_length_b   4.18780447
_cell_length_c   6.18161477
_cell_angle_alpha   72.57961296
_cell_angle_beta   90.00000000
_cell_angle_gamma   90.00000000
_symmetry_Int_Tables_number   1
_chemical_formula_structural   YO2
_chemical_formula_sum   'Y2 O4'
_cell_volume   89.18241628
_cell_formula_units_Z   2
loop_
 _symmetry_equiv_pos_site_id
 _symmetry_equiv_pos_as_xyz
  1  'x, y, z'
loop_
 _atom_site_type_symbol
 _atom_site_label
 _atom_site_symmetry_multiplicity
 _atom_site_fract_x
 _atom_site_fract_y
 _atom_site_fract_z
 _atom_site_occupancy
  Y  Y0  1  0.25000000  0.17013980  0.18406976  1
  Y  Y1  1  0.75000000  0.82986020  0.81593024  1
  O  O2  1  0.25000000  0.81853593  0.55293952  1
  O  O3  1  0.75000000  0.18146407  0.44706048  1
  O  O4  1  0.25000000  0.73241083  0.04724882  1
  O  O5  1  0.75000000  0.26758917  0.95275118  1
