# generated using pymatgen
data_SiO2
_symmetry_space_group_name_H-M   'P 1'
_cell_length_a   5.08491717
_cell_length_b   6.90016218
_cell_length_c   6.90016164
_cell_angle_alpha   75.39616518
_cell_angle_beta   71.34769169
_cell_angle_gamma   71.34770089
_symmetry_Int_Tables_number   1
_chemical_formula_structural   SiO2
_chemical_formula_sum   'Si4 O8'
_cell_volume   214.29079900
_cell_formula_units_Z   4
loop_
 _symmetry_equiv_pos_site_id
 _symmetry_equiv_pos_as_xyz
  1  'x, y, z'
loop_
 _atom_site_type_symbol
 _atom_site_label
 _atom_site_symmetry_multiplicity
 _atom_site_fract_x
 _atom_site_fract_y
 _atom_site_fract_z
 _atom_site_occupancy
  Si  Si0  1  0.35970456  0.94903622  0.74324468  1
  Si  Si1  1  0.64029544  0.05096378  0.25675532  1
  Si  Si2  1  0.85970456  0.74324468  0.94903622  1
  Si  Si3  1  0.14029544  0.25675532  0.05096378  1
  O  O4  1  0.90846509  0.14422596  0.22066612  1
  O  O5  1  0.75000000  0.83941517  0.16058483  1
  O  O6  1  0.25000000  0.16058483  0.83941517  1
  O  O7  1  0.00000000  0.50000000  -0.00000000  1
  O  O8  1  0.59153491  0.77933388  0.85577404  1
  O  O9  1  0.09153491  0.85577404  0.77933388  1
  O  O10  1  0.50000000  -0.00000000  0.50000000  1
  O  O11  1  0.40846509  0.22066612  0.14422596  1
