# generated using pymatgen
data_GdGa6
_symmetry_space_group_name_H-M   'P 1'
_cell_length_a   5.94223447
_cell_length_b   5.94223263
_cell_length_c   7.55068598
_cell_angle_alpha   90.00001701
_cell_angle_beta   90.00000492
_cell_angle_gamma   89.99981179
_symmetry_Int_Tables_number   1
_chemical_formula_structural   GdGa6
_chemical_formula_sum   'Gd2 Ga12'
_cell_volume   266.61577575
_cell_formula_units_Z   2
loop_
 _symmetry_equiv_pos_site_id
 _symmetry_equiv_pos_as_xyz
  1  'x, y, z'
loop_
 _atom_site_type_symbol
 _atom_site_label
 _atom_site_symmetry_multiplicity
 _atom_site_fract_x
 _atom_site_fract_y
 _atom_site_fract_z
 _atom_site_occupancy
  Gd  Gd0  1  0.00000136  0.50000094  -0.00000133  1
  Gd  Gd1  1  0.50000215  -0.00000090  0.00000023  1
  Ga  Ga2  1  0.50000011  0.49999961  0.16004522  1
  Ga  Ga3  1  0.00000145  -0.00000136  0.83995424  1
  Ga  Ga4  1  0.50000040  0.49999924  0.83995457  1
  Ga  Ga5  1  -0.00000090  0.00000102  0.16004545  1
  Ga  Ga6  1  0.19557746  0.69557874  0.34688600  1
  Ga  Ga7  1  0.80441782  0.30442011  0.34688586  1
  Ga  Ga8  1  0.69558199  0.19558105  0.65311480  1
  Ga  Ga9  1  0.30442135  0.80441967  0.65311447  1
  Ga  Ga10  1  0.19557982  0.30442036  0.65311497  1
  Ga  Ga11  1  0.80442115  0.69557834  0.65311481  1
  Ga  Ga12  1  0.69557832  0.80441982  0.34688579  1
  Ga  Ga13  1  0.30441851  0.19558036  0.34688493  1
