# generated using pymatgen
data_TaS2
_symmetry_space_group_name_H-M   'P 1'
_cell_length_a   12.78578929
_cell_length_b   12.78578929
_cell_length_c   12.78578964
_cell_angle_alpha   15.19913124
_cell_angle_beta   15.19913124
_cell_angle_gamma   15.19913065
_symmetry_Int_Tables_number   1
_chemical_formula_structural   TaS2
_chemical_formula_sum   'Ta2 S4'
_cell_volume   125.15074678
_cell_formula_units_Z   2
loop_
 _symmetry_equiv_pos_site_id
 _symmetry_equiv_pos_as_xyz
  1  'x, y, z'
loop_
 _atom_site_type_symbol
 _atom_site_label
 _atom_site_symmetry_multiplicity
 _atom_site_fract_x
 _atom_site_fract_y
 _atom_site_fract_z
 _atom_site_occupancy
  Ta  Ta0  1  0.91709681  0.91709681  0.91709681  1
  Ta  Ta1  1  0.08290319  0.08290319  0.08290319  1
  S  S2  1  0.78955356  0.78955356  0.78955356  1
  S  S3  1  0.21044644  0.21044644  0.21044644  1
  S  S4  1  0.62371844  0.62371844  0.62371844  1
  S  S5  1  0.37628156  0.37628156  0.37628156  1
