# generated using pymatgen
data_Te
_symmetry_space_group_name_H-M   'P 1'
_cell_length_a   3.08031806
_cell_length_b   5.47103583
_cell_length_c   8.36933982
_cell_angle_alpha   90.00000000
_cell_angle_beta   90.00000000
_cell_angle_gamma   89.98790995
_symmetry_Int_Tables_number   1
_chemical_formula_structural   Te
_chemical_formula_sum   Te4
_cell_volume   141.04455129
_cell_formula_units_Z   4
loop_
 _symmetry_equiv_pos_site_id
 _symmetry_equiv_pos_as_xyz
  1  'x, y, z'
loop_
 _atom_site_type_symbol
 _atom_site_label
 _atom_site_symmetry_multiplicity
 _atom_site_fract_x
 _atom_site_fract_y
 _atom_site_fract_z
 _atom_site_occupancy
  Te  Te0  1  0.23643088  0.43943971  0.27807307  1
  Te  Te1  1  0.76356912  0.56056029  0.77807307  1
  Te  Te2  1  0.23580264  0.06096920  0.49192693  1
  Te  Te3  1  0.76419736  0.93903080  -0.00807307  1
