# generated using pymatgen
data_Cd3P2
_symmetry_space_group_name_H-M   'P 1'
_cell_length_a   8.80257436
_cell_length_b   8.80257436
_cell_length_c   12.34960371
_cell_angle_alpha   90.00000000
_cell_angle_beta   90.00000000
_cell_angle_gamma   90.00000000
_symmetry_Int_Tables_number   1
_chemical_formula_structural   Cd3P2
_chemical_formula_sum   'Cd24 P16'
_cell_volume   956.91293808
_cell_formula_units_Z   8
loop_
 _symmetry_equiv_pos_site_id
 _symmetry_equiv_pos_as_xyz
  1  'x, y, z'
loop_
 _atom_site_type_symbol
 _atom_site_label
 _atom_site_symmetry_multiplicity
 _atom_site_fract_x
 _atom_site_fract_y
 _atom_site_fract_z
 _atom_site_occupancy
  Cd  Cd0  1  0.46108111  0.25000000  0.13227152  1
  Cd  Cd1  1  0.25000000  0.46108111  0.63227152  1
  Cd  Cd2  1  0.25000000  0.03891889  0.63227152  1
  Cd  Cd3  1  0.96108111  0.75000000  0.86772848  1
  Cd  Cd4  1  0.53891889  0.75000000  0.86772848  1
  Cd  Cd5  1  0.03891889  0.25000000  0.13227152  1
  Cd  Cd6  1  0.75000000  0.96108111  0.36772848  1
  Cd  Cd7  1  0.75000000  0.53891889  0.36772848  1
  Cd  Cd8  1  0.50685620  0.25000000  0.40017480  1
  Cd  Cd9  1  0.99314380  0.25000000  0.40017480  1
  Cd  Cd10  1  0.75000000  0.00685620  0.09982520  1
  Cd  Cd11  1  0.25000000  0.99314380  0.90017480  1
  Cd  Cd12  1  0.25000000  0.50685620  0.90017480  1
  Cd  Cd13  1  0.49314380  0.75000000  0.59982520  1
  Cd  Cd14  1  0.00685620  0.75000000  0.59982520  1
  Cd  Cd15  1  0.75000000  0.49314380  0.09982520  1
  Cd  Cd16  1  0.25000000  0.53532662  0.35046824  1
  Cd  Cd17  1  0.25000000  0.96467338  0.35046824  1
  Cd  Cd18  1  0.03532662  0.75000000  0.14953176  1
  Cd  Cd19  1  0.53532662  0.25000000  0.85046824  1
  Cd  Cd20  1  0.96467338  0.25000000  0.85046824  1
  Cd  Cd21  1  0.75000000  0.03532662  0.64953176  1
  Cd  Cd22  1  0.75000000  0.46467338  0.64953176  1
  Cd  Cd23  1  0.46467338  0.75000000  0.14953176  1
  P  P24  1  0.75000000  0.75000000  0.50914914  1
  P  P25  1  0.75000000  0.75000000  0.00914914  1
  P  P26  1  0.25000000  0.25000000  0.49085086  1
  P  P27  1  0.25000000  0.25000000  0.99085086  1
  P  P28  1  0.75000000  0.25000000  0.50783010  1
  P  P29  1  0.25000000  0.75000000  0.00783010  1
  P  P30  1  0.25000000  0.75000000  0.49216990  1
  P  P31  1  0.75000000  0.25000000  0.99216990  1
  P  P32  1  0.00753858  0.99246142  0.75000000  1
  P  P33  1  0.50753858  0.00753858  0.25000000  1
  P  P34  1  0.99246142  0.49246142  0.25000000  1
  P  P35  1  0.49246142  0.50753858  0.75000000  1
  P  P36  1  0.99246142  0.00753858  0.25000000  1
  P  P37  1  0.49246142  0.99246142  0.75000000  1
  P  P38  1  0.00753858  0.50753858  0.75000000  1
  P  P39  1  0.50753858  0.49246142  0.25000000  1
