# generated using pymatgen
data_Sc5Ga3
_symmetry_space_group_name_H-M   'P 1'
_cell_length_a   8.06243527
_cell_length_b   8.06243527
_cell_length_c   5.96064848
_cell_angle_alpha   89.21861892
_cell_angle_beta   89.21861892
_cell_angle_gamma   119.97389151
_symmetry_Int_Tables_number   1
_chemical_formula_structural   Sc5Ga3
_chemical_formula_sum   'Sc10 Ga6'
_cell_volume   335.51300051
_cell_formula_units_Z   2
loop_
 _symmetry_equiv_pos_site_id
 _symmetry_equiv_pos_as_xyz
  1  'x, y, z'
loop_
 _atom_site_type_symbol
 _atom_site_label
 _atom_site_symmetry_multiplicity
 _atom_site_fract_x
 _atom_site_fract_y
 _atom_site_fract_z
 _atom_site_occupancy
  Sc  Sc0  1  0.81769226  0.18230774  0.50000000  1
  Sc  Sc1  1  0.18230774  0.81769226  0.50000000  1
  Sc  Sc2  1  0.25652134  0.49712569  0.24257936  1
  Sc  Sc3  1  0.49712569  0.25652134  0.24257936  1
  Sc  Sc4  1  0.74347866  0.50287431  0.75742064  1
  Sc  Sc5  1  0.50287431  0.74347866  0.75742064  1
  Sc  Sc6  1  0.26642657  0.26642657  0.73812232  1
  Sc  Sc7  1  0.73357343  0.73357343  0.26187768  1
  Sc  Sc8  1  0.84984424  0.15015576  -0.00000000  1
  Sc  Sc9  1  0.15015576  0.84984424  -0.00000000  1
  Ga  Ga10  1  0.09461948  0.09461948  0.30468397  1
  Ga  Ga11  1  0.90538052  0.90538052  0.69531603  1
  Ga  Ga12  1  0.90155736  0.49906113  0.21646574  1
  Ga  Ga13  1  0.49906113  0.90155736  0.21646574  1
  Ga  Ga14  1  0.09844264  0.50093887  0.78353426  1
  Ga  Ga15  1  0.50093887  0.09844264  0.78353426  1
