# generated using pymatgen
data_NdF3
_symmetry_space_group_name_H-M   'P 1'
_cell_length_a   6.99957366
_cell_length_b   6.99957384
_cell_length_c   7.20449131
_cell_angle_alpha   90.00000990
_cell_angle_beta   90.00000579
_cell_angle_gamma   120.00001057
_symmetry_Int_Tables_number   1
_chemical_formula_structural   NdF3
_chemical_formula_sum   'Nd6 F18'
_cell_volume   305.68708789
_cell_formula_units_Z   6
loop_
 _symmetry_equiv_pos_site_id
 _symmetry_equiv_pos_as_xyz
  1  'x, y, z'
loop_
 _atom_site_type_symbol
 _atom_site_label
 _atom_site_symmetry_multiplicity
 _atom_site_fract_x
 _atom_site_fract_y
 _atom_site_fract_z
 _atom_site_occupancy
  Nd  Nd0  1  0.67442547  0.00000062  0.75316853  1
  Nd  Nd1  1  0.67442433  0.67442451  0.25316710  1
  Nd  Nd2  1  -0.00000076  0.32557499  0.25316855  1
  Nd  Nd3  1  0.00000076  0.67442541  0.75316857  1
  Nd  Nd4  1  0.32557492  0.32557488  0.75316837  1
  Nd  Nd5  1  0.32557491  -0.00000083  0.25316818  1
  F  F6  1  0.62171819  0.99999895  0.42227803  1
  F  F7  1  0.62171882  0.62171893  0.92227853  1
  F  F8  1  0.00000137  0.37828252  0.92227814  1
  F  F9  1  0.99999904  0.62171813  0.42227805  1
  F  F10  1  0.37828107  0.37828126  0.42227824  1
  F  F11  1  0.37828198  0.00000103  0.92227789  1
  F  F12  1  -0.00000011  0.00000001  0.32747760  1
  F  F13  1  0.00000023  0.00000023  0.82747774  1
  F  F14  1  0.33333289  0.66666829  0.20616998  1
  F  F15  1  0.66666696  0.33333157  0.70617006  1
  F  F16  1  0.33333168  0.66666702  0.70617036  1
  F  F17  1  0.66666833  0.33333315  0.20616988  1
  F  F18  1  0.27674971  -0.00000086  0.58461505  1
  F  F19  1  0.27675145  0.27675147  0.08461530  1
  F  F20  1  0.00000098  0.72325010  0.08461494  1
  F  F21  1  -0.00000094  0.27674986  0.58461503  1
  F  F22  1  0.72324876  0.72324880  0.58461497  1
  F  F23  1  0.72324997  0.00000097  0.08461490  1
