# generated using pymatgen
data_ZrI2
_symmetry_space_group_name_H-M   'P 1'
_cell_length_a   9.19579257
_cell_length_b   9.19579257
_cell_length_c   9.19579243
_cell_angle_alpha   107.02303189
_cell_angle_beta   107.02303187
_cell_angle_gamma   107.02303108
_symmetry_Int_Tables_number   1
_chemical_formula_structural   ZrI2
_chemical_formula_sum   'Zr6 I12'
_cell_volume   647.20217517
_cell_formula_units_Z   6
loop_
 _symmetry_equiv_pos_site_id
 _symmetry_equiv_pos_as_xyz
  1  'x, y, z'
loop_
 _atom_site_type_symbol
 _atom_site_label
 _atom_site_symmetry_multiplicity
 _atom_site_fract_x
 _atom_site_fract_y
 _atom_site_fract_z
 _atom_site_occupancy
  Zr  Zr0  1  0.96858812  0.90819280  0.72858375  1
  Zr  Zr1  1  0.72858375  0.96858812  0.90819280  1
  Zr  Zr2  1  0.90819280  0.72858375  0.96858812  1
  Zr  Zr3  1  0.03141188  0.09180720  0.27141625  1
  Zr  Zr4  1  0.27141625  0.03141188  0.09180720  1
  Zr  Zr5  1  0.09180720  0.27141625  0.03141188  1
  I  I6  1  0.44683344  0.37221028  0.14464370  1
  I  I7  1  0.37221028  0.14464370  0.44683344  1
  I  I8  1  0.14464370  0.44683344  0.37221028  1
  I  I9  1  0.55316656  0.62778972  0.85535630  1
  I  I10  1  0.62778972  0.85535630  0.55316656  1
  I  I11  1  0.85535630  0.55316656  0.62778972  1
  I  I12  1  0.07654338  0.22482135  0.69338932  1
  I  I13  1  0.69338932  0.07654338  0.22482135  1
  I  I14  1  0.22482135  0.69338932  0.07654338  1
  I  I15  1  0.92345662  0.77517865  0.30661068  1
  I  I16  1  0.30661068  0.92345662  0.77517865  1
  I  I17  1  0.77517865  0.30661068  0.92345662  1
