# generated using pymatgen
data_UI4
_symmetry_space_group_name_H-M   'P 1'
_cell_length_a   7.70152222
_cell_length_b   8.38795428
_cell_length_c   8.37329387
_cell_angle_alpha   62.37196040
_cell_angle_beta   89.49981292
_cell_angle_gamma   89.40161295
_symmetry_Int_Tables_number   1
_chemical_formula_structural   UI4
_chemical_formula_sum   'U2 I8'
_cell_volume   479.20729171
_cell_formula_units_Z   2
loop_
 _symmetry_equiv_pos_site_id
 _symmetry_equiv_pos_as_xyz
  1  'x, y, z'
loop_
 _atom_site_type_symbol
 _atom_site_label
 _atom_site_symmetry_multiplicity
 _atom_site_fract_x
 _atom_site_fract_y
 _atom_site_fract_z
 _atom_site_occupancy
  U  U0  1  0.25022872  0.85539830  0.14471018  1
  U  U1  1  0.74977128  0.14460170  0.85528982  1
  I  I2  1  0.58124172  0.00140326  0.23597067  1
  I  I3  1  0.07981644  0.23470509  0.00372706  1
  I  I4  1  0.10504724  0.75596675  0.49637177  1
  I  I5  1  0.89495276  0.24403325  0.50362823  1
  I  I6  1  0.60633124  0.49566116  0.75911160  1
  I  I7  1  0.41875828  -0.00140326  0.76402933  1
  I  I8  1  0.39366876  0.50433884  0.24088840  1
  I  I9  1  0.92018356  0.76529491  0.99627294  1
