# generated using pymatgen
data_TaF5
_symmetry_space_group_name_H-M   'P 1'
_cell_length_a   4.92582728
_cell_length_b   8.57600851
_cell_length_c   8.57600743
_cell_angle_alpha   112.99003552
_cell_angle_beta   94.69619195
_cell_angle_gamma   94.69621163
_symmetry_Int_Tables_number   1
_chemical_formula_structural   TaF5
_chemical_formula_sum   'Ta4 F20'
_cell_volume   329.82042594
_cell_formula_units_Z   4
loop_
 _symmetry_equiv_pos_site_id
 _symmetry_equiv_pos_as_xyz
  1  'x, y, z'
loop_
 _atom_site_type_symbol
 _atom_site_label
 _atom_site_symmetry_multiplicity
 _atom_site_fract_x
 _atom_site_fract_y
 _atom_site_fract_z
 _atom_site_occupancy
  Ta  Ta0  1  0.50000000  0.79567544  0.20432456  1
  Ta  Ta1  1  0.75694031  0.73896028  0.73896028  1
  Ta  Ta2  1  0.24305969  0.26103972  0.26103972  1
  Ta  Ta3  1  0.50000000  0.20432456  0.79567544  1
  F  F4  1  0.14544836  0.27342517  0.46776262  1
  F  F5  1  0.61321871  0.34671201  0.34671201  1
  F  F6  1  0.14544836  0.46776262  0.27342517  1
  F  F7  1  0.38001711  0.02659785  0.21844495  1
  F  F8  1  0.38678129  0.65328799  0.65328799  1
  F  F9  1  0.85455164  0.53223738  0.72657483  1
  F  F10  1  0.07759528  0.87238597  0.87238597  1
  F  F11  1  0.61998289  0.97340115  0.78155505  1
  F  F12  1  0.62547711  0.16855003  0.58914130  1
  F  F13  1  0.84246221  0.92593670  0.29943262  1
  F  F14  1  0.62547711  0.58914130  0.16855003  1
  F  F15  1  0.37452289  0.83144997  0.41085870  1
  F  F16  1  0.61998289  0.78155505  0.97340115  1
  F  F17  1  0.15753779  0.70056738  0.07406330  1
  F  F18  1  0.38001711  0.21844495  0.02659785  1
  F  F19  1  0.37452289  0.41085870  0.83144997  1
  F  F20  1  0.92240472  0.12761403  0.12761403  1
  F  F21  1  0.85455164  0.72657483  0.53223738  1
  F  F22  1  0.84246221  0.29943262  0.92593670  1
  F  F23  1  0.15753779  0.07406330  0.70056738  1
