# generated using pymatgen
data_Ti2Ag
_symmetry_space_group_name_H-M   'P 1'
_cell_length_a   6.26807188
_cell_length_b   6.26807188
_cell_length_c   6.26807188
_cell_angle_alpha   152.82301335
_cell_angle_beta   152.82301335
_cell_angle_gamma   38.81263208
_symmetry_Int_Tables_number   1
_chemical_formula_structural   Ti2Ag
_chemical_formula_sum   'Ti2 Ag1'
_cell_volume   51.28598883
_cell_formula_units_Z   1
loop_
 _symmetry_equiv_pos_site_id
 _symmetry_equiv_pos_as_xyz
  1  'x, y, z'
loop_
 _atom_site_type_symbol
 _atom_site_label
 _atom_site_symmetry_multiplicity
 _atom_site_fract_x
 _atom_site_fract_y
 _atom_site_fract_z
 _atom_site_occupancy
  Ti  Ti0  1  0.32848938  0.32848938  0.00000000  1
  Ti  Ti1  1  0.67151062  0.67151062  -0.00000000  1
  Ag  Ag2  1  0.00000000  -0.00000000  0.00000000  1
