# generated using pymatgen
data_Ca5Ge3
_symmetry_space_group_name_H-M   'P 1'
_cell_length_a   7.70894519
_cell_length_b   7.70894708
_cell_length_c   9.18796898
_cell_angle_alpha   114.79567042
_cell_angle_beta   114.79563998
_cell_angle_gamma   89.99807601
_symmetry_Int_Tables_number   1
_chemical_formula_structural   Ca5Ge3
_chemical_formula_sum   'Ca10 Ge6'
_cell_volume   439.62245568
_cell_formula_units_Z   2
loop_
 _symmetry_equiv_pos_site_id
 _symmetry_equiv_pos_as_xyz
  1  'x, y, z'
loop_
 _atom_site_type_symbol
 _atom_site_label
 _atom_site_symmetry_multiplicity
 _atom_site_fract_x
 _atom_site_fract_y
 _atom_site_fract_z
 _atom_site_occupancy
  Ca  Ca0  1  -0.00000000  0.00000000  0.00000000  1
  Ca  Ca1  1  0.50000000  0.50000000  0.00000000  1
  Ca  Ca2  1  0.31810668  0.81810868  0.27783897  1
  Ca  Ca3  1  0.45971199  0.31794716  0.27783293  1
  Ca  Ca4  1  0.81794616  0.95971199  0.27783293  1
  Ca  Ca5  1  0.54028801  0.68205284  0.72216707  1
  Ca  Ca6  1  0.18205384  0.04028801  0.72216707  1
  Ca  Ca7  1  0.04032546  0.54032546  0.72210969  1
  Ca  Ca8  1  0.68189332  0.18189132  0.72216103  1
  Ca  Ca9  1  0.95967454  0.45967454  0.27789031  1
  Ge  Ge10  1  0.25010763  0.24989137  0.50000000  1
  Ge  Ge11  1  0.74989237  0.75010863  0.50000000  1
  Ge  Ge12  1  0.38252138  0.88252038  0.99988074  1
  Ge  Ge13  1  0.11737642  0.38262158  0.99999900  1
  Ge  Ge14  1  0.88262358  0.61737842  0.00000100  1
  Ge  Ge15  1  0.61747862  0.11747962  0.00011926  1
