# generated using pymatgen
data_TaSe3
_symmetry_space_group_name_H-M   'P 1'
_cell_length_a   3.50723085
_cell_length_b   10.30078784
_cell_length_c   15.83428558
_cell_angle_alpha   108.85822620
_cell_angle_beta   90.00000000
_cell_angle_gamma   90.00000000
_symmetry_Int_Tables_number   1
_chemical_formula_structural   TaSe3
_chemical_formula_sum   'Ta6 Se18'
_cell_volume   541.34218425
_cell_formula_units_Z   6
loop_
 _symmetry_equiv_pos_site_id
 _symmetry_equiv_pos_as_xyz
  1  'x, y, z'
loop_
 _atom_site_type_symbol
 _atom_site_label
 _atom_site_symmetry_multiplicity
 _atom_site_fract_x
 _atom_site_fract_y
 _atom_site_fract_z
 _atom_site_occupancy
  Ta  Ta0  1  0.25000000  0.53290577  0.88396320  1
  Ta  Ta1  1  0.75000000  0.46709423  0.11603680  1
  Ta  Ta2  1  0.75000000  0.11539533  0.79285265  1
  Ta  Ta3  1  0.25000000  0.88460467  0.20714735  1
  Ta  Ta4  1  0.25000000  0.83935736  0.53985362  1
  Ta  Ta5  1  0.75000000  0.16064264  0.46014638  1
  Se  Se6  1  0.75000000  0.37938476  0.93288383  1
  Se  Se7  1  0.25000000  0.62061524  0.06711617  1
  Se  Se8  1  0.75000000  0.73839591  0.91793656  1
  Se  Se9  1  0.25000000  0.26160409  0.08206344  1
  Se  Se10  1  0.75000000  0.56164565  0.76679793  1
  Se  Se11  1  0.25000000  0.43835435  0.23320207  1
  Se  Se12  1  0.25000000  0.08745731  0.90985955  1
  Se  Se13  1  0.75000000  0.91254269  0.09014045  1
  Se  Se14  1  0.25000000  0.91506375  0.72235005  1
  Se  Se15  1  0.75000000  0.08493625  0.27764995  1
  Se  Se16  1  0.25000000  0.27815491  0.75255809  1
  Se  Se17  1  0.75000000  0.72184509  0.24744191  1
  Se  Se18  1  0.75000000  0.66983046  0.57492074  1
  Se  Se19  1  0.25000000  0.33016954  0.42507926  1
  Se  Se20  1  0.75000000  0.03918085  0.59219491  1
  Se  Se21  1  0.25000000  0.96081915  0.40780509  1
  Se  Se22  1  0.75000000  0.67916659  0.42678784  1
  Se  Se23  1  0.25000000  0.32083341  0.57321216  1
