# generated using pymatgen
data_Pd7Se4
_symmetry_space_group_name_H-M   'P 1'
_cell_length_a   5.30869759
_cell_length_b   7.03737506
_cell_length_c   10.36598178
_cell_angle_alpha   90.00116383
_cell_angle_beta   89.99922099
_cell_angle_gamma   89.99989283
_symmetry_Int_Tables_number   1
_chemical_formula_structural   Pd7Se4
_chemical_formula_sum   'Pd14 Se8'
_cell_volume   387.26578181
_cell_formula_units_Z   2
loop_
 _symmetry_equiv_pos_site_id
 _symmetry_equiv_pos_as_xyz
  1  'x, y, z'
loop_
 _atom_site_type_symbol
 _atom_site_label
 _atom_site_symmetry_multiplicity
 _atom_site_fract_x
 _atom_site_fract_y
 _atom_site_fract_z
 _atom_site_occupancy
  Pd  Pd0  1  0.66127711  0.87427095  0.63246191  1
  Pd  Pd1  1  0.66129081  0.12572777  0.36748842  1
  Pd  Pd2  1  0.33873991  0.37426937  0.86751221  1
  Pd  Pd3  1  0.33868533  0.62570804  0.13252643  1
  Pd  Pd4  1  0.32282553  0.00001528  -0.00000809  1
  Pd  Pd5  1  0.67717911  0.50000611  0.49999526  1
  Pd  Pd6  1  0.00630812  0.91380990  0.22596000  1
  Pd  Pd7  1  0.00644087  0.08619411  0.77394554  1
  Pd  Pd8  1  0.99366974  0.41379102  0.27406703  1
  Pd  Pd9  1  0.99357077  0.58620236  0.72604726  1
  Pd  Pd10  1  0.35092425  0.81037646  0.41705436  1
  Pd  Pd11  1  0.35091547  0.18963348  0.58287241  1
  Pd  Pd12  1  0.64907617  0.31040021  0.08294787  1
  Pd  Pd13  1  0.64906074  0.68958644  0.91713123  1
  Se  Se14  1  0.00009110  0.00000601  0.49995106  1
  Se  Se15  1  0.99995240  0.49999078  0.00002692  1
  Se  Se16  1  0.16921048  0.50004771  0.50003052  1
  Se  Se17  1  0.83076211  0.00004350  0.99997900  1
  Se  Se18  1  0.68393501  0.67491634  0.28009429  1
  Se  Se19  1  0.68396581  0.32502056  0.71987768  1
  Se  Se20  1  0.31604574  0.17495256  0.21991489  1
  Se  Se21  1  0.31607441  0.82503204  0.78012280  1
