# generated using pymatgen
data_Nb4C3
_symmetry_space_group_name_H-M   'P 1'
_cell_length_a   10.43200107
_cell_length_b   10.43200107
_cell_length_c   10.43200103
_cell_angle_alpha   17.43296108
_cell_angle_beta   17.43296108
_cell_angle_gamma   17.43296003
_symmetry_Int_Tables_number   1
_chemical_formula_structural   Nb4C3
_chemical_formula_sum   'Nb4 C3'
_cell_volume   88.92508157
_cell_formula_units_Z   1
loop_
 _symmetry_equiv_pos_site_id
 _symmetry_equiv_pos_as_xyz
  1  'x, y, z'
loop_
 _atom_site_type_symbol
 _atom_site_label
 _atom_site_symmetry_multiplicity
 _atom_site_fract_x
 _atom_site_fract_y
 _atom_site_fract_z
 _atom_site_occupancy
  Nb  Nb0  1  0.62282045  0.62282045  0.62282045  1
  Nb  Nb1  1  0.37717955  0.37717955  0.37717955  1
  Nb  Nb2  1  0.87542343  0.87542343  0.87542343  1
  Nb  Nb3  1  0.12457657  0.12457657  0.12457657  1
  C  C4  1  0.75270161  0.75270161  0.75270161  1
  C  C5  1  -0.00000000  -0.00000000  0.00000000  1
  C  C6  1  0.24729839  0.24729839  0.24729839  1
