# generated using pymatgen
data_Pr2I5
_symmetry_space_group_name_H-M   'P 1'
_cell_length_a   4.37736226
_cell_length_b   9.02096798
_cell_length_c   14.80144107
_cell_angle_alpha   92.33346013
_cell_angle_beta   90.00000000
_cell_angle_gamma   90.00000000
_symmetry_Int_Tables_number   1
_chemical_formula_structural   Pr2I5
_chemical_formula_sum   'Pr4 I10'
_cell_volume   583.99531003
_cell_formula_units_Z   2
loop_
 _symmetry_equiv_pos_site_id
 _symmetry_equiv_pos_as_xyz
  1  'x, y, z'
loop_
 _atom_site_type_symbol
 _atom_site_label
 _atom_site_symmetry_multiplicity
 _atom_site_fract_x
 _atom_site_fract_y
 _atom_site_fract_z
 _atom_site_occupancy
  Pr  Pr0  1  0.75000000  0.89937323  0.84641253  1
  Pr  Pr1  1  0.25000000  0.10062677  0.15358747  1
  Pr  Pr2  1  0.75000000  0.41479958  0.34182842  1
  Pr  Pr3  1  0.25000000  0.58520042  0.65817158  1
  I  I4  1  0.75000000  0.35246061  0.71745522  1
  I  I5  1  0.25000000  0.64753939  0.28254478  1
  I  I6  1  0.75000000  0.86144463  0.07285125  1
  I  I7  1  0.25000000  0.13855537  0.92714875  1
  I  I8  1  0.25000000  0.31275234  0.48751019  1
  I  I9  1  0.75000000  0.68724766  0.51248981  1
  I  I10  1  0.25000000  0.94569854  0.68754217  1
  I  I11  1  0.75000000  0.05430146  0.31245783  1
  I  I12  1  0.25000000  0.64288180  0.87790760  1
  I  I13  1  0.75000000  0.35711820  0.12209240  1
