# generated using pymatgen
data_ZnAu3
_symmetry_space_group_name_H-M   'P 1'
_cell_length_a   5.63808710
_cell_length_b   5.63808695
_cell_length_c   17.22444857
_cell_angle_alpha   99.41972531
_cell_angle_beta   99.41972208
_cell_angle_gamma   89.99998859
_symmetry_Int_Tables_number   1
_chemical_formula_structural   ZnAu3
_chemical_formula_sum   'Zn8 Au24'
_cell_volume   532.66293380
_cell_formula_units_Z   8
loop_
 _symmetry_equiv_pos_site_id
 _symmetry_equiv_pos_as_xyz
  1  'x, y, z'
loop_
 _atom_site_type_symbol
 _atom_site_label
 _atom_site_symmetry_multiplicity
 _atom_site_fract_x
 _atom_site_fract_y
 _atom_site_fract_z
 _atom_site_occupancy
  Zn  Zn0  1  0.80694063  0.05694063  0.11388127  1
  Zn  Zn1  1  0.44305937  0.69305937  0.38611873  1
  Zn  Zn2  1  0.94305937  0.19305937  0.38611873  1
  Zn  Zn3  1  0.19305937  0.94305937  0.88611873  1
  Zn  Zn4  1  0.30694063  0.55694063  0.11388127  1
  Zn  Zn5  1  0.55694063  0.30694063  0.61388127  1
  Zn  Zn6  1  0.69305937  0.44305937  0.88611873  1
  Zn  Zn7  1  0.05694063  0.80694063  0.61388127  1
  Au  Au8  1  0.05630416  0.94369584  0.25000000  1
  Au  Au9  1  0.43452936  0.18452936  0.36905872  1
  Au  Au10  1  0.75000000  0.50176676  0.50000000  1
  Au  Au11  1  0.55630416  0.80630416  0.25000000  1
  Au  Au12  1  0.80630416  0.55630416  0.75000000  1
  Au  Au13  1  0.56547064  0.81547064  0.63094128  1
  Au  Au14  1  0.25000000  0.99823324  0.50000000  1
  Au  Au15  1  0.31547064  0.06547064  0.13094128  1
  Au  Au16  1  0.30630416  0.69369584  0.75000000  1
  Au  Au17  1  0.68452936  0.93452936  0.86905872  1
  Au  Au18  1  0.44369584  0.19369584  0.75000000  1
  Au  Au19  1  0.06547064  0.31547064  0.63094128  1
  Au  Au20  1  0.99823324  0.25000000  0.00000000  1
  Au  Au21  1  0.81547064  0.56547064  0.13094128  1
  Au  Au22  1  0.18452936  0.43452936  0.86905872  1
  Au  Au23  1  0.69369584  0.30630416  0.25000000  1
  Au  Au24  1  0.49823324  0.25000000  0.00000000  1
  Au  Au25  1  0.00176576  0.75000000  -0.00000000  1
  Au  Au26  1  0.19369584  0.44369584  0.25000000  1
  Au  Au27  1  0.75000000  0.00176576  0.50000000  1
  Au  Au28  1  0.93452936  0.68452936  0.36905872  1
  Au  Au29  1  0.50176676  0.75000000  -0.00000000  1
  Au  Au30  1  0.94369584  0.05630416  0.75000000  1
  Au  Au31  1  0.25000000  0.49823324  0.50000000  1
