# generated using pymatgen
data_Ge
_symmetry_space_group_name_H-M   'P 1'
_cell_length_a   3.99759578
_cell_length_b   3.99757591
_cell_length_c   6.59937795
_cell_angle_alpha   90.00000000
_cell_angle_beta   90.00000000
_cell_angle_gamma   119.99982882
_symmetry_Int_Tables_number   1
_chemical_formula_structural   Ge
_chemical_formula_sum   Ge4
_cell_volume   91.33347444
_cell_formula_units_Z   4
loop_
 _symmetry_equiv_pos_site_id
 _symmetry_equiv_pos_as_xyz
  1  'x, y, z'
loop_
 _atom_site_type_symbol
 _atom_site_label
 _atom_site_symmetry_multiplicity
 _atom_site_fract_x
 _atom_site_fract_y
 _atom_site_fract_z
 _atom_site_occupancy
  Ge  Ge0  1  0.66666688  0.33333470  0.50040125  1
  Ge  Ge1  1  0.33333312  0.66666430  0.00040125  1
  Ge  Ge2  1  0.66666688  0.33333470  0.87459875  1
  Ge  Ge3  1  0.33333312  0.66666430  0.37459875  1
