# generated using pymatgen
data_CoPt
_symmetry_space_group_name_H-M   'P 1'
_cell_length_a   4.54955856
_cell_length_b   4.54955856
_cell_length_c   4.54955796
_cell_angle_alpha   34.42616414
_cell_angle_beta   34.42616414
_cell_angle_gamma   34.42615708
_symmetry_Int_Tables_number   1
_chemical_formula_structural   CoPt
_chemical_formula_sum   'Co1 Pt1'
_cell_volume   26.84748512
_cell_formula_units_Z   1
loop_
 _symmetry_equiv_pos_site_id
 _symmetry_equiv_pos_as_xyz
  1  'x, y, z'
loop_
 _atom_site_type_symbol
 _atom_site_label
 _atom_site_symmetry_multiplicity
 _atom_site_fract_x
 _atom_site_fract_y
 _atom_site_fract_z
 _atom_site_occupancy
  Co  Co0  1  0.00000000  -0.00000000  0.00000000  1
  Pt  Pt1  1  0.50000000  0.50000000  0.50000000  1
